version 2
run General-0-20171114-09:32:21-4328
attr configname General
attr datetime 20171114-09:32:21
attr experiment General
attr inifile omnetpp.ini
attr iterationvars ""
attr iterationvarsf ""
attr measurement ""
attr network UsingCSMACAwithNoRTS
attr processid 4328
attr repetition 0
attr replication #0
attr resultdir results
attr runnumber 0
attr seedset 0
param *.numHosts 4
param *.host[*].mobilityType "\"MassMobility\""
param *.host[*].mobility.constraintAreaMinX 0m
param *.host[*].mobility.constraintAreaMinY 0m
param *.host[*].mobility.constraintAreaMinZ 0m
param *.host[*].mobility.constraintAreaMaxX 60m
param *.host[*].mobility.constraintAreaMaxY 40m
param *.host[*].mobility.constraintAreaMaxZ 0m
param *.host[*].mobility.initFromDisplayString false
param *.host[*].mobility.changeInterval "truncnormal(2s, 0.5s)"
param *.host[*].mobility.changeAngleBy "normal(0deg, 30deg)"
param *.host[*].mobility.speed "truncnormal(20mps, 8mps)"
param *.host[*].mobility.updateInterval 100ms
param *.host[0].numPingApps 0
param *.host[1].numPingApps 1
param *.host[1].pingApp[*].destAddr "\"host[0]\""
param *.host[2].numPingApps 0
param *.host[3].numPingApps 1
param *.host[3].pingApp[*].destAddr "\"host[2]\""
param *.host[*].pingApp[*].printPing true
param *.host[*].wlan[*].typename "\"Ieee80211Nic\""
param *.host[*].wlan[*].mgmtType "\"Ieee80211MgmtAdhoc\""
param **.mac.dataBitrate 54Mbps
param **.mac.basicBitrate 2Mbps
param **.mac.multicastBitrate 2Mbps
param **.mac.controlBitrate 2Mbps
param *.host[*].wlan[*].radioType "\"Ieee80211ScalarRadio\""
param *.radioMediumType "\"Ieee80211ScalarRadioMedium\""
param **.wlan[*].bitrate 54Mbps

vector 0 UsingCSMACAwithNoRTS.host[0].wlan[0].radio radioMode:vector ETV
attr interpolationmode sample-hold
attr source radioModeChanged
attr title "Radio mode, vector"
vector 1 UsingCSMACAwithNoRTS.host[0].wlan[0].radio radioChannel:vector ETV
attr interpolationmode sample-hold
attr source radioChannelChanged
attr title "Radio channel, vector"
vector 2 UsingCSMACAwithNoRTS.host[1].wlan[0].radio radioMode:vector ETV
attr interpolationmode sample-hold
attr source radioModeChanged
attr title "Radio mode, vector"
vector 3 UsingCSMACAwithNoRTS.host[1].wlan[0].radio radioChannel:vector ETV
attr interpolationmode sample-hold
attr source radioChannelChanged
attr title "Radio channel, vector"
vector 4 UsingCSMACAwithNoRTS.host[2].wlan[0].radio radioMode:vector ETV
attr interpolationmode sample-hold
attr source radioModeChanged
attr title "Radio mode, vector"
vector 5 UsingCSMACAwithNoRTS.host[2].wlan[0].radio radioChannel:vector ETV
attr interpolationmode sample-hold
attr source radioChannelChanged
attr title "Radio channel, vector"
vector 6 UsingCSMACAwithNoRTS.host[3].wlan[0].radio radioMode:vector ETV
attr interpolationmode sample-hold
attr source radioModeChanged
attr title "Radio mode, vector"
vector 7 UsingCSMACAwithNoRTS.host[3].wlan[0].radio radioChannel:vector ETV
attr interpolationmode sample-hold
attr source radioChannelChanged
attr title "Radio channel, vector"
vector 8 UsingCSMACAwithNoRTS.host[0].wlan[0].radio receptionState:vector ETV
attr interpolationmode sample-hold
attr source receptionStateChanged
attr title "Radio reception state, vector"
vector 9 UsingCSMACAwithNoRTS.host[1].wlan[0].radio receptionState:vector ETV
attr interpolationmode sample-hold
attr source receptionStateChanged
attr title "Radio reception state, vector"
vector 10 UsingCSMACAwithNoRTS.host[2].wlan[0].radio receptionState:vector ETV
attr interpolationmode sample-hold
attr source receptionStateChanged
attr title "Radio reception state, vector"
vector 11 UsingCSMACAwithNoRTS.host[3].wlan[0].radio receptionState:vector ETV
attr interpolationmode sample-hold
attr source receptionStateChanged
attr title "Radio reception state, vector"
vector 12 UsingCSMACAwithNoRTS.host[0].wlan[0].mac.dcf.channelAccess.contention state:vector ETV
attr interpolationmode none
attr source stateChanged
attr title "contention state, vector"
vector 13 UsingCSMACAwithNoRTS.host[0].wlan[0].mac.hcf.edca.edcaf[0].contention state:vector ETV
attr interpolationmode none
attr source stateChanged
attr title "contention state, vector"
vector 14 UsingCSMACAwithNoRTS.host[0].wlan[0].mac.hcf.edca.edcaf[1].contention state:vector ETV
attr interpolationmode none
attr source stateChanged
attr title "contention state, vector"
vector 15 UsingCSMACAwithNoRTS.host[0].wlan[0].mac.hcf.edca.edcaf[2].contention state:vector ETV
attr interpolationmode none
attr source stateChanged
attr title "contention state, vector"
vector 16 UsingCSMACAwithNoRTS.host[0].wlan[0].mac.hcf.edca.edcaf[3].contention state:vector ETV
attr interpolationmode none
attr source stateChanged
attr title "contention state, vector"
vector 17 UsingCSMACAwithNoRTS.host[1].wlan[0].mac.dcf.channelAccess.contention state:vector ETV
attr interpolationmode none
attr source stateChanged
attr title "contention state, vector"
vector 18 UsingCSMACAwithNoRTS.host[1].wlan[0].mac.hcf.edca.edcaf[0].contention state:vector ETV
attr interpolationmode none
attr source stateChanged
attr title "contention state, vector"
vector 19 UsingCSMACAwithNoRTS.host[1].wlan[0].mac.hcf.edca.edcaf[1].contention state:vector ETV
attr interpolationmode none
attr source stateChanged
attr title "contention state, vector"
vector 20 UsingCSMACAwithNoRTS.host[1].wlan[0].mac.hcf.edca.edcaf[2].contention state:vector ETV
attr interpolationmode none
attr source stateChanged
attr title "contention state, vector"
vector 21 UsingCSMACAwithNoRTS.host[1].wlan[0].mac.hcf.edca.edcaf[3].contention state:vector ETV
attr interpolationmode none
attr source stateChanged
attr title "contention state, vector"
vector 22 UsingCSMACAwithNoRTS.host[2].wlan[0].mac.dcf.channelAccess.contention state:vector ETV
attr interpolationmode none
attr source stateChanged
attr title "contention state, vector"
vector 23 UsingCSMACAwithNoRTS.host[2].wlan[0].mac.hcf.edca.edcaf[0].contention state:vector ETV
attr interpolationmode none
attr source stateChanged
attr title "contention state, vector"
vector 24 UsingCSMACAwithNoRTS.host[2].wlan[0].mac.hcf.edca.edcaf[1].contention state:vector ETV
attr interpolationmode none
attr source stateChanged
attr title "contention state, vector"
vector 25 UsingCSMACAwithNoRTS.host[2].wlan[0].mac.hcf.edca.edcaf[2].contention state:vector ETV
attr interpolationmode none
attr source stateChanged
attr title "contention state, vector"
vector 26 UsingCSMACAwithNoRTS.host[2].wlan[0].mac.hcf.edca.edcaf[3].contention state:vector ETV
attr interpolationmode none
attr source stateChanged
attr title "contention state, vector"
vector 27 UsingCSMACAwithNoRTS.host[3].wlan[0].mac.dcf.channelAccess.contention state:vector ETV
attr interpolationmode none
attr source stateChanged
attr title "contention state, vector"
vector 28 UsingCSMACAwithNoRTS.host[3].wlan[0].mac.hcf.edca.edcaf[0].contention state:vector ETV
attr interpolationmode none
attr source stateChanged
attr title "contention state, vector"
vector 29 UsingCSMACAwithNoRTS.host[3].wlan[0].mac.hcf.edca.edcaf[1].contention state:vector ETV
attr interpolationmode none
attr source stateChanged
attr title "contention state, vector"
vector 30 UsingCSMACAwithNoRTS.host[3].wlan[0].mac.hcf.edca.edcaf[2].contention state:vector ETV
attr interpolationmode none
attr source stateChanged
attr title "contention state, vector"
vector 31 UsingCSMACAwithNoRTS.host[3].wlan[0].mac.hcf.edca.edcaf[3].contention state:vector ETV
attr interpolationmode none
attr source stateChanged
attr title "contention state, vector"
vector 32 UsingCSMACAwithNoRTS.host[1].pingApp[0] pingTxSeq:vector ETV
attr interpolationmode none
attr title "ping tx seq, vector"
vector 33 UsingCSMACAwithNoRTS.host[1].networkLayer.arp sentReq:vector ETV
attr title "ARP request sent, vector"
vector 34 UsingCSMACAwithNoRTS.host[1].wlan[0].mac rcvdPkFromHL:vector(packetBytes) ETV
attr interpolationmode none
attr source packetReceivedFromUpper
attr title "packets received from higher layer, vector(packetBytes)"
vector 35 UsingCSMACAwithNoRTS.host[1].wlan[0].mac sentDownPk:vector(packetBytes) ETV
attr interpolationmode none
attr source packetSentToLower
attr title "packets sent to lower layer, vector(packetBytes)"
vector 36 UsingCSMACAwithNoRTS.host[1].wlan[0].radio transmissionState:vector ETV
attr interpolationmode sample-hold
attr source transmissionStateChanged
attr title "Radio transmission state, vector"
vector 37 UsingCSMACAwithNoRTS.host[3].wlan[0].mac rcvdPkFromLL:vector(packetBytes) ETV
attr interpolationmode none
attr source packetReceivedFromLower
attr title "packets received from lower layer, vector(packetBytes)"
vector 38 UsingCSMACAwithNoRTS.host[3].wlan[0].mac passedUpPk:vector(packetBytes) ETV
attr interpolationmode none
attr source packetSentToUpper
attr title "packets passed to higher layer, vector(packetBytes)"
vector 39 UsingCSMACAwithNoRTS.host[2].wlan[0].mac rcvdPkFromLL:vector(packetBytes) ETV
attr interpolationmode none
attr source packetReceivedFromLower
attr title "packets received from lower layer, vector(packetBytes)"
vector 40 UsingCSMACAwithNoRTS.host[2].wlan[0].mac passedUpPk:vector(packetBytes) ETV
attr interpolationmode none
attr source packetSentToUpper
attr title "packets passed to higher layer, vector(packetBytes)"
vector 41 UsingCSMACAwithNoRTS.host[0].wlan[0].mac rcvdPkFromLL:vector(packetBytes) ETV
attr interpolationmode none
attr source packetReceivedFromLower
attr title "packets received from lower layer, vector(packetBytes)"
vector 42 UsingCSMACAwithNoRTS.host[0].wlan[0].mac passedUpPk:vector(packetBytes) ETV
attr interpolationmode none
attr source packetSentToUpper
attr title "packets passed to higher layer, vector(packetBytes)"
vector 43 UsingCSMACAwithNoRTS.host[0].networkLayer.arp sentReply:vector ETV
attr title "ARP replies sent, vector"
vector 44 UsingCSMACAwithNoRTS.host[0].wlan[0].mac rcvdPkFromHL:vector(packetBytes) ETV
attr interpolationmode none
attr source packetReceivedFromUpper
attr title "packets received from higher layer, vector(packetBytes)"
vector 45 UsingCSMACAwithNoRTS.host[0].wlan[0].mac sentDownPk:vector(packetBytes) ETV
attr interpolationmode none
attr source packetSentToLower
attr title "packets sent to lower layer, vector(packetBytes)"
vector 46 UsingCSMACAwithNoRTS.host[0].wlan[0].radio transmissionState:vector ETV
attr interpolationmode sample-hold
attr source transmissionStateChanged
attr title "Radio transmission state, vector"
vector 47 UsingCSMACAwithNoRTS.host[1].wlan[0].mac rcvdPkFromLL:vector(packetBytes) ETV
attr interpolationmode none
attr source packetReceivedFromLower
attr title "packets received from lower layer, vector(packetBytes)"
vector 48 UsingCSMACAwithNoRTS.host[1].wlan[0].mac passedUpPk:vector(packetBytes) ETV
attr interpolationmode none
attr source packetSentToUpper
attr title "packets passed to higher layer, vector(packetBytes)"
vector 49 UsingCSMACAwithNoRTS.host[1].pingApp[0] pingRxSeq:vector ETV
attr interpolationmode none
attr title "ping rx seq, vector"
vector 50 UsingCSMACAwithNoRTS.host[1].pingApp[0] rtt:vector ETV
attr interpolationmode none
attr title "ping round-trip time, vector"
attr unit s
vector 51 UsingCSMACAwithNoRTS.host[3].pingApp[0] pingTxSeq:vector ETV
attr interpolationmode none
attr title "ping tx seq, vector"
vector 52 UsingCSMACAwithNoRTS.host[3].networkLayer.arp sentReq:vector ETV
attr title "ARP request sent, vector"
vector 53 UsingCSMACAwithNoRTS.host[3].wlan[0].mac rcvdPkFromHL:vector(packetBytes) ETV
attr interpolationmode none
attr source packetReceivedFromUpper
attr title "packets received from higher layer, vector(packetBytes)"
vector 54 UsingCSMACAwithNoRTS.host[3].wlan[0].mac sentDownPk:vector(packetBytes) ETV
attr interpolationmode none
attr source packetSentToLower
attr title "packets sent to lower layer, vector(packetBytes)"
vector 55 UsingCSMACAwithNoRTS.host[3].wlan[0].radio transmissionState:vector ETV
attr interpolationmode sample-hold
attr source transmissionStateChanged
attr title "Radio transmission state, vector"
vector 56 UsingCSMACAwithNoRTS.host[2].networkLayer.arp sentReply:vector ETV
attr title "ARP replies sent, vector"
vector 57 UsingCSMACAwithNoRTS.host[2].wlan[0].mac rcvdPkFromHL:vector(packetBytes) ETV
attr interpolationmode none
attr source packetReceivedFromUpper
attr title "packets received from higher layer, vector(packetBytes)"
vector 58 UsingCSMACAwithNoRTS.host[2].wlan[0].mac sentDownPk:vector(packetBytes) ETV
attr interpolationmode none
attr source packetSentToLower
attr title "packets sent to lower layer, vector(packetBytes)"
vector 59 UsingCSMACAwithNoRTS.host[2].wlan[0].radio transmissionState:vector ETV
attr interpolationmode sample-hold
attr source transmissionStateChanged
attr title "Radio transmission state, vector"
vector 60 UsingCSMACAwithNoRTS.host[3].pingApp[0] pingRxSeq:vector ETV
attr interpolationmode none
attr title "ping rx seq, vector"
vector 61 UsingCSMACAwithNoRTS.host[3].pingApp[0] rtt:vector ETV
attr interpolationmode none
attr title "ping round-trip time, vector"
attr unit s
0	0	0	0
0	0	0	2
0	66	0.549311649949	3
0	72	0.549349649949	2
0	125	0.549773945179	3
0	135	0.550021945179	2
0	145	0.550611945179	3
0	151	0.550657945179	2
0	413	1.548869612778	3
0	423	1.549117612778	2
0	433	1.549527612778	3
0	439	1.549573612778	2
0	627	2.548869525493	3
0	635	2.549117525493	2
0	647	2.549647525493	3
0	653	2.549693525493	2
0	842	3.548869593574	3
0	852	3.549117593574	2
0	862	3.549187593574	3
0	868	3.549233593574	2
0	1058	4.548869600066	3
0	1069	4.549117600066	2
0	1079	4.549447600066	3
0	1085	4.549493600066	2
1	0	0	0
2	0	0	0
2	0	0	2
2	38	0.548813502304	3
2	44	0.549261502304	2
2	85	0.549359797573	3
2	94	0.549607797573	2
2	105	0.549717797573	3
2	111	0.549763797573	2
2	163	0.550668092747	3
2	172	0.550916092747	2
2	393	1.548813502304	3
2	399	1.548859502304	2
2	451	1.549583723231	3
2	459	1.549831723231	2
2	607	2.548813502304	3
2	613	2.548859502304	2
2	665	2.549703548546	3
2	673	2.549951548546	2
2	822	3.548813502304	3
2	828	3.548859502304	2
2	880	3.549243684848	3
2	889	3.549491684848	2
2	1038	4.548813502304	3
2	1044	4.548859502304	2
2	1097	4.549503697809	3
2	1106	4.549751697809	2
3	0	0	0
4	0	0	0
4	0	0	2
4	224	0.593482635426	3
4	230	0.593520635426	2
4	283	0.594064673621	3
4	291	0.594312673621	2
4	303	0.594742673621	3
4	309	0.594788673621	2
4	500	1.592900703099	3
4	509	1.593148703099	2
4	520	1.593658703099	3
4	526	1.593704703099	2
4	717	2.592900747229	3
4	727	2.593148747229	2
4	737	2.593438747229	3
4	743	2.593484747229	2
4	932	3.592900741561	3
4	941	3.593148741561	2
4	952	3.593338741561	3
4	958	3.593384741561	2
5	0	0	0
6	0	0	0
6	0	0	2
6	196	0.592844616389	3
6	202	0.593292616389	2
6	243	0.593530654506	3
6	251	0.593778654506	2
6	263	0.594008654506	3
6	269	0.594054654506	2
6	321	0.594798692785	3
6	329	0.595046692785	2
6	480	1.592844616389	3
6	486	1.592890616389	2
6	538	1.593714789864	3
6	547	1.593962789864	2
6	697	2.592844616389	3
6	703	2.592890616389	2
6	755	2.593494878119	3
6	765	2.593742878119	2
6	912	3.592844616389	3
6	918	3.592890616389	2
6	970	3.593394866681	3
6	980	3.593642866681	2
6	1127	4.592844616389	3
7	0	0	0
8	0	0	1
8	42	0.548813649949	3
8	55	0.549261649949	1
8	66	0.549311649949	0
8	72	0.549349649949	1
8	89	0.549359945195	3
8	100	0.549607945195	1
8	109	0.549717945179	3
8	116	0.549763945179	1
8	125	0.549773945179	0
8	135	0.550021945179	1
8	145	0.550611945179	0
8	151	0.550657945179	1
8	167	0.550668240312	3
8	178	0.550916240312	1
8	200	0.592844768826	3
8	216	0.593292768826	1
8	228	0.593482769179	3
8	240	0.593520769179	1
8	247	0.593530807017	3
8	258	0.593778807017	1
8	267	0.594008807069	3
8	280	0.594054807069	1
8	287	0.594064807401	3
8	298	0.594312807401	1
8	307	0.594742807433	3
8	318	0.594788807433	1
8	325	0.594798845434	3
8	336	0.595046845434	1
8	397	1.548813612778	3
8	404	1.548859612778	1
8	413	1.548869612778	0
8	423	1.549117612778	1
8	433	1.549527612778	0
8	439	1.549573612778	1
8	455	1.549583833683	3
8	466	1.549831833683	1
8	484	1.592844783632	3
8	497	1.592890783632	1
8	504	1.59290086781	3
8	515	1.59314886781	1
8	524	1.593658867822	3
8	535	1.593704867822	1
8	542	1.593714957121	3
8	553	1.593962957121	1
8	609	2.548813525493	3
8	614	2.548859525493	1
8	627	2.548869525493	0
8	635	2.549117525493	1
8	647	2.549647525493	0
8	653	2.549693525493	1
8	667	2.549703571589	3
8	674	2.549951571589	1
8	700	2.592844735941	3
8	706	2.592890735941	1
8	720	2.592900869759	3
8	730	2.593148869759	1
8	740	2.593438869697	3
8	746	2.593484869697	1
8	758	2.593494997653	3
8	768	2.593742997653	1
8	826	3.548813593574	3
8	833	3.548859593574	1
8	842	3.548869593574	0
8	852	3.549117593574	1
8	862	3.549187593574	0
8	868	3.549233593574	1
8	884	3.549243776123	3
8	895	3.549491776123	1
8	916	3.592844742567	3
8	929	3.592890742567	1
8	934	3.592900755174	3
8	943	3.593148755174	1
8	954	3.593338755226	3
8	959	3.593384755226	1
8	974	3.593394992839	3
8	985	3.593642992839	1
8	1042	4.548813600066	3
8	1049	4.548859600066	1
8	1058	4.548869600066	0
8	1069	4.549117600066	1
8	1079	4.549447600066	0
8	1085	4.549493600066	1
8	1101	4.54950379555	3
8	1112	4.54975179555	1
8	1130	4.592844697594	3
9	0	0	1
9	38	0.548813502304	0
9	44	0.549261502304	1
9	69	0.549311797573	3
9	75	0.549349797573	1
9	85	0.549359797573	0
9	94	0.549607797573	1
9	105	0.549717797573	0
9	111	0.549763797573	1
9	128	0.549774092783	3
9	138	0.550022092783	1
9	148	0.550612092747	3
9	154	0.550658092747	1
9	163	0.550668092747	0
9	172	0.550916092747	1
9	199	0.592844652555	3
9	211	0.593292652555	1
9	227	0.593482674041	3
9	238	0.593520674041	1
9	246	0.593530690708	3
9	255	0.593778690708	1
9	266	0.594008690733	3
9	278	0.594054690733	1
9	286	0.594064712245	3
9	295	0.594312712245	1
9	306	0.594742712257	3
9	316	0.594788712257	1
9	324	0.594798729053	3
9	333	0.595046729053	1
9	393	1.548813502304	0
9	399	1.548859502304	1
9	415	1.54886972325	3
9	424	1.54911772325	1
9	435	1.549527723231	3
9	440	1.549573723231	1
9	451	1.549583723231	0
9	459	1.549831723231	1
9	482	1.592844683544	3
9	487	1.592890683544	1
9	502	1.592900769871	3
9	510	1.593148769871	1
9	522	1.593658769886	3
9	527	1.593704769886	1
9	540	1.593714857086	3
9	548	1.593962857086	1
9	607	2.548813502304	0
9	613	2.548859502304	1
9	629	2.548869548673	3
9	636	2.549117548673	1
9	649	2.549647548546	3
9	654	2.549693548546	1
9	665	2.549703548546	0
9	673	2.549951548546	1
9	699	2.592844725397	3
9	704	2.592890725397	1
9	719	2.592900854834	3
9	728	2.593148854834	1
9	739	2.593438854857	3
9	744	2.593484854857	1
9	757	2.593494987176	3
9	766	2.593742987176	1
9	822	3.548813502304	0
9	828	3.548859502304	1
9	845	3.548869684845	3
9	855	3.549117684845	1
9	865	3.549187684848	3
9	871	3.549233684848	1
9	880	3.549243684848	0
9	889	3.549491684848	1
9	914	3.592844696492	3
9	919	3.592890696492	1
9	935	3.592900823961	3
9	945	3.593148823961	1
9	955	3.593338823913	3
9	961	3.593384823913	1
9	972	3.59339494674	3
9	981	3.59364294674	1
9	1038	4.548813502304	0
9	1044	4.548859502304	1
9	1061	4.548869697826	3
9	1072	4.549117697826	1
9	1082	4.549447697809	3
9	1088	4.549493697809	1
9	1097	4.549503697809	0
9	1106	4.549751697809	1
9	1129	4.592844662599	3
10	0	0	1
10	41	0.548813540355	3
10	50	0.549261540355	1
10	68	0.549311781699	3
10	73	0.549349781699	1
10	88	0.549359835629	3
10	98	0.549607835629	1
10	108	0.549717835632	3
10	114	0.549763835632	1
10	127	0.54977407695	3
10	136	0.55002207695	1
10	147	0.550612076987	3
10	152	0.550658076987	1
10	166	0.550668130815	3
10	176	0.550916130815	1
10	198	0.592844635426	3
10	203	0.593292635426	1
10	224	0.593482635426	0
10	230	0.593520635426	1
10	245	0.593530673589	3
10	252	0.593778673589	1
10	265	0.594008673621	3
10	270	0.594054673621	1
10	283	0.594064673621	0
10	291	0.594312673621	1
10	303	0.594742673621	0
10	309	0.594788673621	1
10	323	0.594798711953	3
10	330	0.595046711953	1
10	396	1.548813568233	3
10	402	1.548859568233	1
10	416	1.548869776804	3
10	426	1.549117776804	1
10	436	1.549527776814	3
10	446	1.549573776814	1
10	454	1.549583789174	3
10	464	1.549831789174	1
10	483	1.592844703099	3
10	489	1.592890703099	1
10	500	1.592900703099	0
10	509	1.593148703099	1
10	520	1.593658703099	0
10	526	1.593704703099	1
10	541	1.593714876633	3
10	551	1.593962876633	1
10	610	2.548813607947	3
10	622	2.548859607947	1
10	631	2.54886965307	3
10	642	2.54911765307	1
10	651	2.549647652981	3
10	662	2.549693652981	1
10	668	2.549703654228	3
10	678	2.549951654228	1
10	701	2.592844747229	3
10	708	2.592890747229	1
10	717	2.592900747229	0
10	727	2.593148747229	1
10	737	2.593438747229	0
10	743	2.593484747229	1
10	759	2.593495009014	3
10	770	2.593743009014	1
10	825	3.54881358966	3
10	831	3.54885958966	1
10	844	3.548869602418	3
10	853	3.549117602418	1
10	864	3.549187602447	3
10	869	3.549233602447	1
10	883	3.549243772155	3
10	893	3.549491772155	1
10	915	3.592844741561	3
10	921	3.592890741561	1
10	932	3.592900741561	0
10	941	3.593148741561	1
10	952	3.593338741561	0
10	958	3.593384741561	1
10	973	3.593394991795	3
10	983	3.593642991795	1
10	1041	4.548813547956	3
10	1047	4.548859547956	1
10	1062	4.548869725967	3
10	1074	4.549117725967	1
10	1083	4.549447725995	3
10	1094	4.549493725995	1
10	1100	4.549503743474	3
10	1110	4.549751743474	1
10	1131	4.592844709241	3
11	0	0	1
11	40	0.548813536678	3
11	45	0.549261536678	1
11	70	0.549311797692	3
11	82	0.549349797692	1
11	87	0.549359831963	3
11	96	0.549607831963	1
11	107	0.549717831973	3
11	112	0.549763831973	1
11	129	0.549774092971	3
11	140	0.550022092971	1
11	149	0.550612093061	3
11	160	0.550658093061	1
11	165	0.550668127175	3
11	174	0.550916127175	1
11	196	0.592844616389	0
11	202	0.593292616389	1
11	226	0.593482654506	3
11	231	0.593520654506	1
11	243	0.593530654506	0
11	251	0.593778654506	1
11	263	0.594008654506	0
11	269	0.594054654506	1
11	285	0.59406469274	3
11	293	0.59431269274	1
11	305	0.594742692785	3
11	310	0.594788692785	1
11	321	0.594798692785	0
11	329	0.595046692785	1
11	395	1.548813566111	3
11	400	1.548859566111	1
11	417	1.548869779305	3
11	428	1.549117779305	1
11	437	1.549527779316	3
11	448	1.549573779316	1
11	453	1.549583787097	3
11	462	1.549831787097	1
11	480	1.592844616389	0
11	486	1.592890616389	1
11	503	1.592900789812	3
11	513	1.593148789812	1
11	523	1.593658789864	3
11	529	1.593704789864	1
11	538	1.593714789864	0
11	547	1.593962789864	1
11	611	2.548813608004	3
11	624	2.548859608004	1
11	630	2.548869646531	3
11	640	2.549117646531	1
11	650	2.5496476465	3
11	660	2.5496936465	1
11	669	2.549703654313	3
11	680	2.549951654313	1
11	697	2.592844616389	0
11	703	2.592890616389	1
11	721	2.592900878074	3
11	732	2.593148878074	1
11	741	2.593438878119	3
11	748	2.593484878119	1
11	755	2.593494878119	0
11	765	2.593742878119	1
11	824	3.548813585911	3
11	829	3.548859585911	1
11	846	3.548869721337	3
11	857	3.549117721337	1
11	866	3.549187721325	3
11	877	3.549233721325	1
11	882	3.549243768421	3
11	891	3.549491768421	1
11	912	3.592844616389	0
11	918	3.592890616389	1
11	936	3.592900866727	3
11	947	3.593148866727	1
11	956	3.593338866681	3
11	963	3.593384866681	1
11	970	3.593394866681	0
11	980	3.593642866681	1
11	1040	4.548813547634	3
11	1045	4.548859547634	1
11	1060	4.548869684743	3
11	1070	4.549117684743	1
11	1081	4.549447684697	3
11	1086	4.549493684697	1
11	1099	4.549503743153	3
11	1108	4.549751743153	1
11	1127	4.592844616389	0
12	0	0	0
12	0	0	0
12	42	0.548813649949	0
12	42	0.548813649949	0
12	55	0.549261649949	0
12	55	0.549261649949	0
12	62	0.549261649949	0
12	62	0.549261649949	2
12	63	0.549311649949	2
12	63	0.549311649949	0
12	66	0.549311649949	0
12	66	0.549311649949	0
12	100	0.549607945195	0
12	100	0.549607945195	0
12	109	0.549717945179	0
12	109	0.549717945179	0
12	116	0.549763945179	0
12	116	0.549763945179	0
12	123	0.549763945179	0
12	123	0.549763945179	2
12	125	0.549773945179	2
12	125	0.549773945179	1
12	135	0.550021945179	1
12	135	0.550021945179	2
12	142	0.550611945179	2
12	142	0.550611945179	0
12	145	0.550611945179	0
12	145	0.550611945179	0
12	178	0.550916240312	0
12	178	0.550916240312	0
12	200	0.592844768826	0
12	200	0.592844768826	0
12	216	0.593292768826	0
12	216	0.593292768826	0
12	228	0.593482769179	0
12	228	0.593482769179	0
12	240	0.593520769179	0
12	240	0.593520769179	0
12	241	0.593520769179	0
12	241	0.593520769179	0
12	258	0.593778807017	0
12	258	0.593778807017	0
12	267	0.594008807069	0
12	267	0.594008807069	0
12	280	0.594054807069	0
12	280	0.594054807069	0
12	281	0.594054807069	0
12	281	0.594054807069	0
12	298	0.594312807401	0
12	298	0.594312807401	0
12	307	0.594742807433	0
12	307	0.594742807433	0
12	318	0.594788807433	0
12	318	0.594788807433	0
12	319	0.594788807433	0
12	319	0.594788807433	0
12	336	0.595046845434	0
12	336	0.595046845434	0
12	397	1.548813612778	0
12	397	1.548813612778	0
12	404	1.548859612778	0
12	404	1.548859612778	0
12	411	1.548859612778	0
12	411	1.548859612778	2
12	413	1.548869612778	2
12	413	1.548869612778	1
12	423	1.549117612778	1
12	423	1.549117612778	2
12	430	1.549527612778	2
12	430	1.549527612778	0
12	433	1.549527612778	0
12	433	1.549527612778	0
12	466	1.549831833683	0
12	466	1.549831833683	0
12	484	1.592844783632	0
12	484	1.592844783632	0
12	497	1.592890783632	0
12	497	1.592890783632	0
12	498	1.592890783632	0
12	498	1.592890783632	0
12	515	1.59314886781	0
12	515	1.59314886781	0
12	524	1.593658867822	0
12	524	1.593658867822	0
12	535	1.593704867822	0
12	535	1.593704867822	0
12	536	1.593704867822	0
12	536	1.593704867822	0
12	553	1.593962957121	0
12	553	1.593962957121	0
12	609	2.548813525493	0
12	609	2.548813525493	0
12	614	2.548859525493	0
12	614	2.548859525493	0
12	621	2.548859525493	0
12	621	2.548859525493	2
12	627	2.548869525493	2
12	627	2.548869525493	1
12	635	2.549117525493	1
12	635	2.549117525493	2
12	644	2.549647525493	2
12	644	2.549647525493	0
12	647	2.549647525493	0
12	647	2.549647525493	0
12	674	2.549951571589	0
12	674	2.549951571589	0
12	700	2.592844735941	0
12	700	2.592844735941	0
12	706	2.592890735941	0
12	706	2.592890735941	0
12	707	2.592890735941	0
12	707	2.592890735941	0
12	730	2.593148869759	0
12	730	2.593148869759	0
12	740	2.593438869697	0
12	740	2.593438869697	0
12	746	2.593484869697	0
12	746	2.593484869697	0
12	747	2.593484869697	0
12	747	2.593484869697	0
12	768	2.593742997653	0
12	768	2.593742997653	0
12	826	3.548813593574	0
12	826	3.548813593574	0
12	833	3.548859593574	0
12	833	3.548859593574	0
12	840	3.548859593574	0
12	840	3.548859593574	2
12	842	3.548869593574	2
12	842	3.548869593574	1
12	852	3.549117593574	1
12	852	3.549117593574	2
12	859	3.549187593574	2
12	859	3.549187593574	0
12	862	3.549187593574	0
12	862	3.549187593574	0
12	895	3.549491776123	0
12	895	3.549491776123	0
12	916	3.592844742567	0
12	916	3.592844742567	0
12	929	3.592890742567	0
12	929	3.592890742567	0
12	930	3.592890742567	0
12	930	3.592890742567	0
12	943	3.593148755174	0
12	943	3.593148755174	0
12	954	3.593338755226	0
12	954	3.593338755226	0
12	959	3.593384755226	0
12	959	3.593384755226	0
12	960	3.593384755226	0
12	960	3.593384755226	0
12	985	3.593642992839	0
12	985	3.593642992839	0
12	1042	4.548813600066	0
12	1042	4.548813600066	0
12	1049	4.548859600066	0
12	1049	4.548859600066	0
12	1056	4.548859600066	0
12	1056	4.548859600066	2
12	1058	4.548869600066	2
12	1058	4.548869600066	1
12	1069	4.549117600066	1
12	1069	4.549117600066	2
12	1076	4.549447600066	2
12	1076	4.549447600066	0
12	1079	4.549447600066	0
12	1079	4.549447600066	0
12	1112	4.54975179555	0
12	1112	4.54975179555	0
12	1130	4.592844697594	0
12	1130	4.592844697594	0
13	0	0	0
13	0	0	0
13	42	0.548813649949	0
13	42	0.548813649949	0
13	55	0.549261649949	0
13	55	0.549261649949	0
13	66	0.549311649949	0
13	66	0.549311649949	0
13	100	0.549607945195	0
13	100	0.549607945195	0
13	109	0.549717945179	0
13	109	0.549717945179	0
13	116	0.549763945179	0
13	116	0.549763945179	0
13	125	0.549773945179	0
13	125	0.549773945179	0
13	135	0.550021945179	0
13	135	0.550021945179	0
13	145	0.550611945179	0
13	145	0.550611945179	0
13	178	0.550916240312	0
13	178	0.550916240312	0
13	200	0.592844768826	0
13	200	0.592844768826	0
13	216	0.593292768826	0
13	216	0.593292768826	0
13	228	0.593482769179	0
13	228	0.593482769179	0
13	240	0.593520769179	0
13	240	0.593520769179	0
13	241	0.593520769179	0
13	241	0.593520769179	0
13	258	0.593778807017	0
13	258	0.593778807017	0
13	267	0.594008807069	0
13	267	0.594008807069	0
13	280	0.594054807069	0
13	280	0.594054807069	0
13	281	0.594054807069	0
13	281	0.594054807069	0
13	298	0.594312807401	0
13	298	0.594312807401	0
13	307	0.594742807433	0
13	307	0.594742807433	0
13	318	0.594788807433	0
13	318	0.594788807433	0
13	319	0.594788807433	0
13	319	0.594788807433	0
13	336	0.595046845434	0
13	336	0.595046845434	0
13	397	1.548813612778	0
13	397	1.548813612778	0
13	404	1.548859612778	0
13	404	1.548859612778	0
13	413	1.548869612778	0
13	413	1.548869612778	0
13	423	1.549117612778	0
13	423	1.549117612778	0
13	433	1.549527612778	0
13	433	1.549527612778	0
13	466	1.549831833683	0
13	466	1.549831833683	0
13	484	1.592844783632	0
13	484	1.592844783632	0
13	497	1.592890783632	0
13	497	1.592890783632	0
13	498	1.592890783632	0
13	498	1.592890783632	0
13	515	1.59314886781	0
13	515	1.59314886781	0
13	524	1.593658867822	0
13	524	1.593658867822	0
13	535	1.593704867822	0
13	535	1.593704867822	0
13	536	1.593704867822	0
13	536	1.593704867822	0
13	553	1.593962957121	0
13	553	1.593962957121	0
13	609	2.548813525493	0
13	609	2.548813525493	0
13	614	2.548859525493	0
13	614	2.548859525493	0
13	627	2.548869525493	0
13	627	2.548869525493	0
13	635	2.549117525493	0
13	635	2.549117525493	0
13	647	2.549647525493	0
13	647	2.549647525493	0
13	674	2.549951571589	0
13	674	2.549951571589	0
13	700	2.592844735941	0
13	700	2.592844735941	0
13	706	2.592890735941	0
13	706	2.592890735941	0
13	707	2.592890735941	0
13	707	2.592890735941	0
13	730	2.593148869759	0
13	730	2.593148869759	0
13	740	2.593438869697	0
13	740	2.593438869697	0
13	746	2.593484869697	0
13	746	2.593484869697	0
13	747	2.593484869697	0
13	747	2.593484869697	0
13	768	2.593742997653	0
13	768	2.593742997653	0
13	826	3.548813593574	0
13	826	3.548813593574	0
13	833	3.548859593574	0
13	833	3.548859593574	0
13	842	3.548869593574	0
13	842	3.548869593574	0
13	852	3.549117593574	0
13	852	3.549117593574	0
13	862	3.549187593574	0
13	862	3.549187593574	0
13	895	3.549491776123	0
13	895	3.549491776123	0
13	916	3.592844742567	0
13	916	3.592844742567	0
13	929	3.592890742567	0
13	929	3.592890742567	0
13	930	3.592890742567	0
13	930	3.592890742567	0
13	943	3.593148755174	0
13	943	3.593148755174	0
13	954	3.593338755226	0
13	954	3.593338755226	0
13	959	3.593384755226	0
13	959	3.593384755226	0
13	960	3.593384755226	0
13	960	3.593384755226	0
13	985	3.593642992839	0
13	985	3.593642992839	0
13	1042	4.548813600066	0
13	1042	4.548813600066	0
13	1049	4.548859600066	0
13	1049	4.548859600066	0
13	1058	4.548869600066	0
13	1058	4.548869600066	0
13	1069	4.549117600066	0
13	1069	4.549117600066	0
13	1079	4.549447600066	0
13	1079	4.549447600066	0
13	1112	4.54975179555	0
13	1112	4.54975179555	0
13	1130	4.592844697594	0
13	1130	4.592844697594	0
14	0	0	0
14	0	0	0
14	42	0.548813649949	0
14	42	0.548813649949	0
14	55	0.549261649949	0
14	55	0.549261649949	0
14	66	0.549311649949	0
14	66	0.549311649949	0
14	100	0.549607945195	0
14	100	0.549607945195	0
14	109	0.549717945179	0
14	109	0.549717945179	0
14	116	0.549763945179	0
14	116	0.549763945179	0
14	125	0.549773945179	0
14	125	0.549773945179	0
14	135	0.550021945179	0
14	135	0.550021945179	0
14	145	0.550611945179	0
14	145	0.550611945179	0
14	178	0.550916240312	0
14	178	0.550916240312	0
14	200	0.592844768826	0
14	200	0.592844768826	0
14	216	0.593292768826	0
14	216	0.593292768826	0
14	228	0.593482769179	0
14	228	0.593482769179	0
14	240	0.593520769179	0
14	240	0.593520769179	0
14	241	0.593520769179	0
14	241	0.593520769179	0
14	258	0.593778807017	0
14	258	0.593778807017	0
14	267	0.594008807069	0
14	267	0.594008807069	0
14	280	0.594054807069	0
14	280	0.594054807069	0
14	281	0.594054807069	0
14	281	0.594054807069	0
14	298	0.594312807401	0
14	298	0.594312807401	0
14	307	0.594742807433	0
14	307	0.594742807433	0
14	318	0.594788807433	0
14	318	0.594788807433	0
14	319	0.594788807433	0
14	319	0.594788807433	0
14	336	0.595046845434	0
14	336	0.595046845434	0
14	397	1.548813612778	0
14	397	1.548813612778	0
14	404	1.548859612778	0
14	404	1.548859612778	0
14	413	1.548869612778	0
14	413	1.548869612778	0
14	423	1.549117612778	0
14	423	1.549117612778	0
14	433	1.549527612778	0
14	433	1.549527612778	0
14	466	1.549831833683	0
14	466	1.549831833683	0
14	484	1.592844783632	0
14	484	1.592844783632	0
14	497	1.592890783632	0
14	497	1.592890783632	0
14	498	1.592890783632	0
14	498	1.592890783632	0
14	515	1.59314886781	0
14	515	1.59314886781	0
14	524	1.593658867822	0
14	524	1.593658867822	0
14	535	1.593704867822	0
14	535	1.593704867822	0
14	536	1.593704867822	0
14	536	1.593704867822	0
14	553	1.593962957121	0
14	553	1.593962957121	0
14	609	2.548813525493	0
14	609	2.548813525493	0
14	614	2.548859525493	0
14	614	2.548859525493	0
14	627	2.548869525493	0
14	627	2.548869525493	0
14	635	2.549117525493	0
14	635	2.549117525493	0
14	647	2.549647525493	0
14	647	2.549647525493	0
14	674	2.549951571589	0
14	674	2.549951571589	0
14	700	2.592844735941	0
14	700	2.592844735941	0
14	706	2.592890735941	0
14	706	2.592890735941	0
14	707	2.592890735941	0
14	707	2.592890735941	0
14	730	2.593148869759	0
14	730	2.593148869759	0
14	740	2.593438869697	0
14	740	2.593438869697	0
14	746	2.593484869697	0
14	746	2.593484869697	0
14	747	2.593484869697	0
14	747	2.593484869697	0
14	768	2.593742997653	0
14	768	2.593742997653	0
14	826	3.548813593574	0
14	826	3.548813593574	0
14	833	3.548859593574	0
14	833	3.548859593574	0
14	842	3.548869593574	0
14	842	3.548869593574	0
14	852	3.549117593574	0
14	852	3.549117593574	0
14	862	3.549187593574	0
14	862	3.549187593574	0
14	895	3.549491776123	0
14	895	3.549491776123	0
14	916	3.592844742567	0
14	916	3.592844742567	0
14	929	3.592890742567	0
14	929	3.592890742567	0
14	930	3.592890742567	0
14	930	3.592890742567	0
14	943	3.593148755174	0
14	943	3.593148755174	0
14	954	3.593338755226	0
14	954	3.593338755226	0
14	959	3.593384755226	0
14	959	3.593384755226	0
14	960	3.593384755226	0
14	960	3.593384755226	0
14	985	3.593642992839	0
14	985	3.593642992839	0
14	1042	4.548813600066	0
14	1042	4.548813600066	0
14	1049	4.548859600066	0
14	1049	4.548859600066	0
14	1058	4.548869600066	0
14	1058	4.548869600066	0
14	1069	4.549117600066	0
14	1069	4.549117600066	0
14	1079	4.549447600066	0
14	1079	4.549447600066	0
14	1112	4.54975179555	0
14	1112	4.54975179555	0
14	1130	4.592844697594	0
14	1130	4.592844697594	0
15	0	0	0
15	0	0	0
15	42	0.548813649949	0
15	42	0.548813649949	0
15	55	0.549261649949	0
15	55	0.549261649949	0
15	66	0.549311649949	0
15	66	0.549311649949	0
15	100	0.549607945195	0
15	100	0.549607945195	0
15	109	0.549717945179	0
15	109	0.549717945179	0
15	116	0.549763945179	0
15	116	0.549763945179	0
15	125	0.549773945179	0
15	125	0.549773945179	0
15	135	0.550021945179	0
15	135	0.550021945179	0
15	145	0.550611945179	0
15	145	0.550611945179	0
15	178	0.550916240312	0
15	178	0.550916240312	0
15	200	0.592844768826	0
15	200	0.592844768826	0
15	216	0.593292768826	0
15	216	0.593292768826	0
15	228	0.593482769179	0
15	228	0.593482769179	0
15	240	0.593520769179	0
15	240	0.593520769179	0
15	241	0.593520769179	0
15	241	0.593520769179	0
15	258	0.593778807017	0
15	258	0.593778807017	0
15	267	0.594008807069	0
15	267	0.594008807069	0
15	280	0.594054807069	0
15	280	0.594054807069	0
15	281	0.594054807069	0
15	281	0.594054807069	0
15	298	0.594312807401	0
15	298	0.594312807401	0
15	307	0.594742807433	0
15	307	0.594742807433	0
15	318	0.594788807433	0
15	318	0.594788807433	0
15	319	0.594788807433	0
15	319	0.594788807433	0
15	336	0.595046845434	0
15	336	0.595046845434	0
15	397	1.548813612778	0
15	397	1.548813612778	0
15	404	1.548859612778	0
15	404	1.548859612778	0
15	413	1.548869612778	0
15	413	1.548869612778	0
15	423	1.549117612778	0
15	423	1.549117612778	0
15	433	1.549527612778	0
15	433	1.549527612778	0
15	466	1.549831833683	0
15	466	1.549831833683	0
15	484	1.592844783632	0
15	484	1.592844783632	0
15	497	1.592890783632	0
15	497	1.592890783632	0
15	498	1.592890783632	0
15	498	1.592890783632	0
15	515	1.59314886781	0
15	515	1.59314886781	0
15	524	1.593658867822	0
15	524	1.593658867822	0
15	535	1.593704867822	0
15	535	1.593704867822	0
15	536	1.593704867822	0
15	536	1.593704867822	0
15	553	1.593962957121	0
15	553	1.593962957121	0
15	609	2.548813525493	0
15	609	2.548813525493	0
15	614	2.548859525493	0
15	614	2.548859525493	0
15	627	2.548869525493	0
15	627	2.548869525493	0
15	635	2.549117525493	0
15	635	2.549117525493	0
15	647	2.549647525493	0
15	647	2.549647525493	0
15	674	2.549951571589	0
15	674	2.549951571589	0
15	700	2.592844735941	0
15	700	2.592844735941	0
15	706	2.592890735941	0
15	706	2.592890735941	0
15	707	2.592890735941	0
15	707	2.592890735941	0
15	730	2.593148869759	0
15	730	2.593148869759	0
15	740	2.593438869697	0
15	740	2.593438869697	0
15	746	2.593484869697	0
15	746	2.593484869697	0
15	747	2.593484869697	0
15	747	2.593484869697	0
15	768	2.593742997653	0
15	768	2.593742997653	0
15	826	3.548813593574	0
15	826	3.548813593574	0
15	833	3.548859593574	0
15	833	3.548859593574	0
15	842	3.548869593574	0
15	842	3.548869593574	0
15	852	3.549117593574	0
15	852	3.549117593574	0
15	862	3.549187593574	0
15	862	3.549187593574	0
15	895	3.549491776123	0
15	895	3.549491776123	0
15	916	3.592844742567	0
15	916	3.592844742567	0
15	929	3.592890742567	0
15	929	3.592890742567	0
15	930	3.592890742567	0
15	930	3.592890742567	0
15	943	3.593148755174	0
15	943	3.593148755174	0
15	954	3.593338755226	0
15	954	3.593338755226	0
15	959	3.593384755226	0
15	959	3.593384755226	0
15	960	3.593384755226	0
15	960	3.593384755226	0
15	985	3.593642992839	0
15	985	3.593642992839	0
15	1042	4.548813600066	0
15	1042	4.548813600066	0
15	1049	4.548859600066	0
15	1049	4.548859600066	0
15	1058	4.548869600066	0
15	1058	4.548869600066	0
15	1069	4.549117600066	0
15	1069	4.549117600066	0
15	1079	4.549447600066	0
15	1079	4.549447600066	0
15	1112	4.54975179555	0
15	1112	4.54975179555	0
15	1130	4.592844697594	0
15	1130	4.592844697594	0
16	0	0	0
16	0	0	0
16	42	0.548813649949	0
16	42	0.548813649949	0
16	55	0.549261649949	0
16	55	0.549261649949	0
16	66	0.549311649949	0
16	66	0.549311649949	0
16	100	0.549607945195	0
16	100	0.549607945195	0
16	109	0.549717945179	0
16	109	0.549717945179	0
16	116	0.549763945179	0
16	116	0.549763945179	0
16	125	0.549773945179	0
16	125	0.549773945179	0
16	135	0.550021945179	0
16	135	0.550021945179	0
16	145	0.550611945179	0
16	145	0.550611945179	0
16	178	0.550916240312	0
16	178	0.550916240312	0
16	200	0.592844768826	0
16	200	0.592844768826	0
16	216	0.593292768826	0
16	216	0.593292768826	0
16	228	0.593482769179	0
16	228	0.593482769179	0
16	240	0.593520769179	0
16	240	0.593520769179	0
16	241	0.593520769179	0
16	241	0.593520769179	0
16	258	0.593778807017	0
16	258	0.593778807017	0
16	267	0.594008807069	0
16	267	0.594008807069	0
16	280	0.594054807069	0
16	280	0.594054807069	0
16	281	0.594054807069	0
16	281	0.594054807069	0
16	298	0.594312807401	0
16	298	0.594312807401	0
16	307	0.594742807433	0
16	307	0.594742807433	0
16	318	0.594788807433	0
16	318	0.594788807433	0
16	319	0.594788807433	0
16	319	0.594788807433	0
16	336	0.595046845434	0
16	336	0.595046845434	0
16	397	1.548813612778	0
16	397	1.548813612778	0
16	404	1.548859612778	0
16	404	1.548859612778	0
16	413	1.548869612778	0
16	413	1.548869612778	0
16	423	1.549117612778	0
16	423	1.549117612778	0
16	433	1.549527612778	0
16	433	1.549527612778	0
16	466	1.549831833683	0
16	466	1.549831833683	0
16	484	1.592844783632	0
16	484	1.592844783632	0
16	497	1.592890783632	0
16	497	1.592890783632	0
16	498	1.592890783632	0
16	498	1.592890783632	0
16	515	1.59314886781	0
16	515	1.59314886781	0
16	524	1.593658867822	0
16	524	1.593658867822	0
16	535	1.593704867822	0
16	535	1.593704867822	0
16	536	1.593704867822	0
16	536	1.593704867822	0
16	553	1.593962957121	0
16	553	1.593962957121	0
16	609	2.548813525493	0
16	609	2.548813525493	0
16	614	2.548859525493	0
16	614	2.548859525493	0
16	627	2.548869525493	0
16	627	2.548869525493	0
16	635	2.549117525493	0
16	635	2.549117525493	0
16	647	2.549647525493	0
16	647	2.549647525493	0
16	674	2.549951571589	0
16	674	2.549951571589	0
16	700	2.592844735941	0
16	700	2.592844735941	0
16	706	2.592890735941	0
16	706	2.592890735941	0
16	707	2.592890735941	0
16	707	2.592890735941	0
16	730	2.593148869759	0
16	730	2.593148869759	0
16	740	2.593438869697	0
16	740	2.593438869697	0
16	746	2.593484869697	0
16	746	2.593484869697	0
16	747	2.593484869697	0
16	747	2.593484869697	0
16	768	2.593742997653	0
16	768	2.593742997653	0
16	826	3.548813593574	0
16	826	3.548813593574	0
16	833	3.548859593574	0
16	833	3.548859593574	0
16	842	3.548869593574	0
16	842	3.548869593574	0
16	852	3.549117593574	0
16	852	3.549117593574	0
16	862	3.549187593574	0
16	862	3.549187593574	0
16	895	3.549491776123	0
16	895	3.549491776123	0
16	916	3.592844742567	0
16	916	3.592844742567	0
16	929	3.592890742567	0
16	929	3.592890742567	0
16	930	3.592890742567	0
16	930	3.592890742567	0
16	943	3.593148755174	0
16	943	3.593148755174	0
16	954	3.593338755226	0
16	954	3.593338755226	0
16	959	3.593384755226	0
16	959	3.593384755226	0
16	960	3.593384755226	0
16	960	3.593384755226	0
16	985	3.593642992839	0
16	985	3.593642992839	0
16	1042	4.548813600066	0
16	1042	4.548813600066	0
16	1049	4.548859600066	0
16	1049	4.548859600066	0
16	1058	4.548869600066	0
16	1058	4.548869600066	0
16	1069	4.549117600066	0
16	1069	4.549117600066	0
16	1079	4.549447600066	0
16	1079	4.549447600066	0
16	1112	4.54975179555	0
16	1112	4.54975179555	0
16	1130	4.592844697594	0
16	1130	4.592844697594	0
17	0	0	0
17	0	0	0
17	34	0.548813502304	0
17	34	0.548813502304	2
17	35	0.548813502304	2
17	35	0.548813502304	0
17	38	0.548813502304	0
17	38	0.548813502304	0
17	44	0.549261502304	0
17	44	0.549261502304	0
17	69	0.549311797573	0
17	69	0.549311797573	0
17	75	0.549349797573	0
17	75	0.549349797573	0
17	81	0.549349797573	0
17	81	0.549349797573	2
17	85	0.549359797573	2
17	85	0.549359797573	1
17	94	0.549607797573	1
17	94	0.549607797573	2
17	102	0.549717797573	2
17	102	0.549717797573	0
17	105	0.549717797573	0
17	105	0.549717797573	0
17	138	0.550022092783	0
17	138	0.550022092783	0
17	148	0.550612092747	0
17	148	0.550612092747	0
17	154	0.550658092747	0
17	154	0.550658092747	0
17	163	0.550668092747	0
17	163	0.550668092747	0
17	172	0.550916092747	0
17	172	0.550916092747	0
17	199	0.592844652555	0
17	199	0.592844652555	0
17	211	0.593292652555	0
17	211	0.593292652555	0
17	227	0.593482674041	0
17	227	0.593482674041	0
17	238	0.593520674041	0
17	238	0.593520674041	0
17	239	0.593520674041	0
17	239	0.593520674041	0
17	255	0.593778690708	0
17	255	0.593778690708	0
17	266	0.594008690733	0
17	266	0.594008690733	0
17	278	0.594054690733	0
17	278	0.594054690733	0
17	279	0.594054690733	0
17	279	0.594054690733	0
17	295	0.594312712245	0
17	295	0.594312712245	0
17	306	0.594742712257	0
17	306	0.594742712257	0
17	316	0.594788712257	0
17	316	0.594788712257	0
17	317	0.594788712257	0
17	317	0.594788712257	0
17	333	0.595046729053	0
17	333	0.595046729053	0
17	389	1.548813502304	0
17	389	1.548813502304	2
17	390	1.548813502304	2
17	390	1.548813502304	0
17	393	1.548813502304	0
17	393	1.548813502304	0
17	424	1.54911772325	0
17	424	1.54911772325	0
17	435	1.549527723231	0
17	435	1.549527723231	0
17	440	1.549573723231	0
17	440	1.549573723231	0
17	451	1.549583723231	0
17	451	1.549583723231	0
17	459	1.549831723231	0
17	459	1.549831723231	0
17	482	1.592844683544	0
17	482	1.592844683544	0
17	487	1.592890683544	0
17	487	1.592890683544	0
17	488	1.592890683544	0
17	488	1.592890683544	0
17	510	1.593148769871	0
17	510	1.593148769871	0
17	522	1.593658769886	0
17	522	1.593658769886	0
17	527	1.593704769886	0
17	527	1.593704769886	0
17	528	1.593704769886	0
17	528	1.593704769886	0
17	548	1.593962857086	0
17	548	1.593962857086	0
17	603	2.548813502304	0
17	603	2.548813502304	2
17	604	2.548813502304	2
17	604	2.548813502304	0
17	607	2.548813502304	0
17	607	2.548813502304	0
17	636	2.549117548673	0
17	636	2.549117548673	0
17	649	2.549647548546	0
17	649	2.549647548546	0
17	654	2.549693548546	0
17	654	2.549693548546	0
17	665	2.549703548546	0
17	665	2.549703548546	0
17	673	2.549951548546	0
17	673	2.549951548546	0
17	699	2.592844725397	0
17	699	2.592844725397	0
17	704	2.592890725397	0
17	704	2.592890725397	0
17	705	2.592890725397	0
17	705	2.592890725397	0
17	728	2.593148854834	0
17	728	2.593148854834	0
17	739	2.593438854857	0
17	739	2.593438854857	0
17	744	2.593484854857	0
17	744	2.593484854857	0
17	745	2.593484854857	0
17	745	2.593484854857	0
17	766	2.593742987176	0
17	766	2.593742987176	0
17	818	3.548813502304	0
17	818	3.548813502304	2
17	819	3.548813502304	2
17	819	3.548813502304	0
17	822	3.548813502304	0
17	822	3.548813502304	0
17	855	3.549117684845	0
17	855	3.549117684845	0
17	865	3.549187684848	0
17	865	3.549187684848	0
17	871	3.549233684848	0
17	871	3.549233684848	0
17	880	3.549243684848	0
17	880	3.549243684848	0
17	889	3.549491684848	0
17	889	3.549491684848	0
17	914	3.592844696492	0
17	914	3.592844696492	0
17	919	3.592890696492	0
17	919	3.592890696492	0
17	920	3.592890696492	0
17	920	3.592890696492	0
17	945	3.593148823961	0
17	945	3.593148823961	0
17	955	3.593338823913	0
17	955	3.593338823913	0
17	961	3.593384823913	0
17	961	3.593384823913	0
17	962	3.593384823913	0
17	962	3.593384823913	0
17	981	3.59364294674	0
17	981	3.59364294674	0
17	1034	4.548813502304	0
17	1034	4.548813502304	2
17	1035	4.548813502304	2
17	1035	4.548813502304	0
17	1038	4.548813502304	0
17	1038	4.548813502304	0
17	1072	4.549117697826	0
17	1072	4.549117697826	0
17	1082	4.549447697809	0
17	1082	4.549447697809	0
17	1088	4.549493697809	0
17	1088	4.549493697809	0
17	1097	4.549503697809	0
17	1097	4.549503697809	0
17	1106	4.549751697809	0
17	1106	4.549751697809	0
17	1129	4.592844662599	0
17	1129	4.592844662599	0
18	0	0	0
18	0	0	0
18	38	0.548813502304	0
18	38	0.548813502304	0
18	44	0.549261502304	0
18	44	0.549261502304	0
18	69	0.549311797573	0
18	69	0.549311797573	0
18	75	0.549349797573	0
18	75	0.549349797573	0
18	85	0.549359797573	0
18	85	0.549359797573	0
18	94	0.549607797573	0
18	94	0.549607797573	0
18	105	0.549717797573	0
18	105	0.549717797573	0
18	138	0.550022092783	0
18	138	0.550022092783	0
18	148	0.550612092747	0
18	148	0.550612092747	0
18	154	0.550658092747	0
18	154	0.550658092747	0
18	163	0.550668092747	0
18	163	0.550668092747	0
18	172	0.550916092747	0
18	172	0.550916092747	0
18	199	0.592844652555	0
18	199	0.592844652555	0
18	211	0.593292652555	0
18	211	0.593292652555	0
18	227	0.593482674041	0
18	227	0.593482674041	0
18	238	0.593520674041	0
18	238	0.593520674041	0
18	239	0.593520674041	0
18	239	0.593520674041	0
18	255	0.593778690708	0
18	255	0.593778690708	0
18	266	0.594008690733	0
18	266	0.594008690733	0
18	278	0.594054690733	0
18	278	0.594054690733	0
18	279	0.594054690733	0
18	279	0.594054690733	0
18	295	0.594312712245	0
18	295	0.594312712245	0
18	306	0.594742712257	0
18	306	0.594742712257	0
18	316	0.594788712257	0
18	316	0.594788712257	0
18	317	0.594788712257	0
18	317	0.594788712257	0
18	333	0.595046729053	0
18	333	0.595046729053	0
18	393	1.548813502304	0
18	393	1.548813502304	0
18	424	1.54911772325	0
18	424	1.54911772325	0
18	435	1.549527723231	0
18	435	1.549527723231	0
18	440	1.549573723231	0
18	440	1.549573723231	0
18	451	1.549583723231	0
18	451	1.549583723231	0
18	459	1.549831723231	0
18	459	1.549831723231	0
18	482	1.592844683544	0
18	482	1.592844683544	0
18	487	1.592890683544	0
18	487	1.592890683544	0
18	488	1.592890683544	0
18	488	1.592890683544	0
18	510	1.593148769871	0
18	510	1.593148769871	0
18	522	1.593658769886	0
18	522	1.593658769886	0
18	527	1.593704769886	0
18	527	1.593704769886	0
18	528	1.593704769886	0
18	528	1.593704769886	0
18	548	1.593962857086	0
18	548	1.593962857086	0
18	607	2.548813502304	0
18	607	2.548813502304	0
18	636	2.549117548673	0
18	636	2.549117548673	0
18	649	2.549647548546	0
18	649	2.549647548546	0
18	654	2.549693548546	0
18	654	2.549693548546	0
18	665	2.549703548546	0
18	665	2.549703548546	0
18	673	2.549951548546	0
18	673	2.549951548546	0
18	699	2.592844725397	0
18	699	2.592844725397	0
18	704	2.592890725397	0
18	704	2.592890725397	0
18	705	2.592890725397	0
18	705	2.592890725397	0
18	728	2.593148854834	0
18	728	2.593148854834	0
18	739	2.593438854857	0
18	739	2.593438854857	0
18	744	2.593484854857	0
18	744	2.593484854857	0
18	745	2.593484854857	0
18	745	2.593484854857	0
18	766	2.593742987176	0
18	766	2.593742987176	0
18	822	3.548813502304	0
18	822	3.548813502304	0
18	855	3.549117684845	0
18	855	3.549117684845	0
18	865	3.549187684848	0
18	865	3.549187684848	0
18	871	3.549233684848	0
18	871	3.549233684848	0
18	880	3.549243684848	0
18	880	3.549243684848	0
18	889	3.549491684848	0
18	889	3.549491684848	0
18	914	3.592844696492	0
18	914	3.592844696492	0
18	919	3.592890696492	0
18	919	3.592890696492	0
18	920	3.592890696492	0
18	920	3.592890696492	0
18	945	3.593148823961	0
18	945	3.593148823961	0
18	955	3.593338823913	0
18	955	3.593338823913	0
18	961	3.593384823913	0
18	961	3.593384823913	0
18	962	3.593384823913	0
18	962	3.593384823913	0
18	981	3.59364294674	0
18	981	3.59364294674	0
18	1038	4.548813502304	0
18	1038	4.548813502304	0
18	1072	4.549117697826	0
18	1072	4.549117697826	0
18	1082	4.549447697809	0
18	1082	4.549447697809	0
18	1088	4.549493697809	0
18	1088	4.549493697809	0
18	1097	4.549503697809	0
18	1097	4.549503697809	0
18	1106	4.549751697809	0
18	1106	4.549751697809	0
18	1129	4.592844662599	0
18	1129	4.592844662599	0
19	0	0	0
19	0	0	0
19	38	0.548813502304	0
19	38	0.548813502304	0
19	44	0.549261502304	0
19	44	0.549261502304	0
19	69	0.549311797573	0
19	69	0.549311797573	0
19	75	0.549349797573	0
19	75	0.549349797573	0
19	85	0.549359797573	0
19	85	0.549359797573	0
19	94	0.549607797573	0
19	94	0.549607797573	0
19	105	0.549717797573	0
19	105	0.549717797573	0
19	138	0.550022092783	0
19	138	0.550022092783	0
19	148	0.550612092747	0
19	148	0.550612092747	0
19	154	0.550658092747	0
19	154	0.550658092747	0
19	163	0.550668092747	0
19	163	0.550668092747	0
19	172	0.550916092747	0
19	172	0.550916092747	0
19	199	0.592844652555	0
19	199	0.592844652555	0
19	211	0.593292652555	0
19	211	0.593292652555	0
19	227	0.593482674041	0
19	227	0.593482674041	0
19	238	0.593520674041	0
19	238	0.593520674041	0
19	239	0.593520674041	0
19	239	0.593520674041	0
19	255	0.593778690708	0
19	255	0.593778690708	0
19	266	0.594008690733	0
19	266	0.594008690733	0
19	278	0.594054690733	0
19	278	0.594054690733	0
19	279	0.594054690733	0
19	279	0.594054690733	0
19	295	0.594312712245	0
19	295	0.594312712245	0
19	306	0.594742712257	0
19	306	0.594742712257	0
19	316	0.594788712257	0
19	316	0.594788712257	0
19	317	0.594788712257	0
19	317	0.594788712257	0
19	333	0.595046729053	0
19	333	0.595046729053	0
19	393	1.548813502304	0
19	393	1.548813502304	0
19	424	1.54911772325	0
19	424	1.54911772325	0
19	435	1.549527723231	0
19	435	1.549527723231	0
19	440	1.549573723231	0
19	440	1.549573723231	0
19	451	1.549583723231	0
19	451	1.549583723231	0
19	459	1.549831723231	0
19	459	1.549831723231	0
19	482	1.592844683544	0
19	482	1.592844683544	0
19	487	1.592890683544	0
19	487	1.592890683544	0
19	488	1.592890683544	0
19	488	1.592890683544	0
19	510	1.593148769871	0
19	510	1.593148769871	0
19	522	1.593658769886	0
19	522	1.593658769886	0
19	527	1.593704769886	0
19	527	1.593704769886	0
19	528	1.593704769886	0
19	528	1.593704769886	0
19	548	1.593962857086	0
19	548	1.593962857086	0
19	607	2.548813502304	0
19	607	2.548813502304	0
19	636	2.549117548673	0
19	636	2.549117548673	0
19	649	2.549647548546	0
19	649	2.549647548546	0
19	654	2.549693548546	0
19	654	2.549693548546	0
19	665	2.549703548546	0
19	665	2.549703548546	0
19	673	2.549951548546	0
19	673	2.549951548546	0
19	699	2.592844725397	0
19	699	2.592844725397	0
19	704	2.592890725397	0
19	704	2.592890725397	0
19	705	2.592890725397	0
19	705	2.592890725397	0
19	728	2.593148854834	0
19	728	2.593148854834	0
19	739	2.593438854857	0
19	739	2.593438854857	0
19	744	2.593484854857	0
19	744	2.593484854857	0
19	745	2.593484854857	0
19	745	2.593484854857	0
19	766	2.593742987176	0
19	766	2.593742987176	0
19	822	3.548813502304	0
19	822	3.548813502304	0
19	855	3.549117684845	0
19	855	3.549117684845	0
19	865	3.549187684848	0
19	865	3.549187684848	0
19	871	3.549233684848	0
19	871	3.549233684848	0
19	880	3.549243684848	0
19	880	3.549243684848	0
19	889	3.549491684848	0
19	889	3.549491684848	0
19	914	3.592844696492	0
19	914	3.592844696492	0
19	919	3.592890696492	0
19	919	3.592890696492	0
19	920	3.592890696492	0
19	920	3.592890696492	0
19	945	3.593148823961	0
19	945	3.593148823961	0
19	955	3.593338823913	0
19	955	3.593338823913	0
19	961	3.593384823913	0
19	961	3.593384823913	0
19	962	3.593384823913	0
19	962	3.593384823913	0
19	981	3.59364294674	0
19	981	3.59364294674	0
19	1038	4.548813502304	0
19	1038	4.548813502304	0
19	1072	4.549117697826	0
19	1072	4.549117697826	0
19	1082	4.549447697809	0
19	1082	4.549447697809	0
19	1088	4.549493697809	0
19	1088	4.549493697809	0
19	1097	4.549503697809	0
19	1097	4.549503697809	0
19	1106	4.549751697809	0
19	1106	4.549751697809	0
19	1129	4.592844662599	0
19	1129	4.592844662599	0
20	0	0	0
20	0	0	0
20	38	0.548813502304	0
20	38	0.548813502304	0
20	44	0.549261502304	0
20	44	0.549261502304	0
20	69	0.549311797573	0
20	69	0.549311797573	0
20	75	0.549349797573	0
20	75	0.549349797573	0
20	85	0.549359797573	0
20	85	0.549359797573	0
20	94	0.549607797573	0
20	94	0.549607797573	0
20	105	0.549717797573	0
20	105	0.549717797573	0
20	138	0.550022092783	0
20	138	0.550022092783	0
20	148	0.550612092747	0
20	148	0.550612092747	0
20	154	0.550658092747	0
20	154	0.550658092747	0
20	163	0.550668092747	0
20	163	0.550668092747	0
20	172	0.550916092747	0
20	172	0.550916092747	0
20	199	0.592844652555	0
20	199	0.592844652555	0
20	211	0.593292652555	0
20	211	0.593292652555	0
20	227	0.593482674041	0
20	227	0.593482674041	0
20	238	0.593520674041	0
20	238	0.593520674041	0
20	239	0.593520674041	0
20	239	0.593520674041	0
20	255	0.593778690708	0
20	255	0.593778690708	0
20	266	0.594008690733	0
20	266	0.594008690733	0
20	278	0.594054690733	0
20	278	0.594054690733	0
20	279	0.594054690733	0
20	279	0.594054690733	0
20	295	0.594312712245	0
20	295	0.594312712245	0
20	306	0.594742712257	0
20	306	0.594742712257	0
20	316	0.594788712257	0
20	316	0.594788712257	0
20	317	0.594788712257	0
20	317	0.594788712257	0
20	333	0.595046729053	0
20	333	0.595046729053	0
20	393	1.548813502304	0
20	393	1.548813502304	0
20	424	1.54911772325	0
20	424	1.54911772325	0
20	435	1.549527723231	0
20	435	1.549527723231	0
20	440	1.549573723231	0
20	440	1.549573723231	0
20	451	1.549583723231	0
20	451	1.549583723231	0
20	459	1.549831723231	0
20	459	1.549831723231	0
20	482	1.592844683544	0
20	482	1.592844683544	0
20	487	1.592890683544	0
20	487	1.592890683544	0
20	488	1.592890683544	0
20	488	1.592890683544	0
20	510	1.593148769871	0
20	510	1.593148769871	0
20	522	1.593658769886	0
20	522	1.593658769886	0
20	527	1.593704769886	0
20	527	1.593704769886	0
20	528	1.593704769886	0
20	528	1.593704769886	0
20	548	1.593962857086	0
20	548	1.593962857086	0
20	607	2.548813502304	0
20	607	2.548813502304	0
20	636	2.549117548673	0
20	636	2.549117548673	0
20	649	2.549647548546	0
20	649	2.549647548546	0
20	654	2.549693548546	0
20	654	2.549693548546	0
20	665	2.549703548546	0
20	665	2.549703548546	0
20	673	2.549951548546	0
20	673	2.549951548546	0
20	699	2.592844725397	0
20	699	2.592844725397	0
20	704	2.592890725397	0
20	704	2.592890725397	0
20	705	2.592890725397	0
20	705	2.592890725397	0
20	728	2.593148854834	0
20	728	2.593148854834	0
20	739	2.593438854857	0
20	739	2.593438854857	0
20	744	2.593484854857	0
20	744	2.593484854857	0
20	745	2.593484854857	0
20	745	2.593484854857	0
20	766	2.593742987176	0
20	766	2.593742987176	0
20	822	3.548813502304	0
20	822	3.548813502304	0
20	855	3.549117684845	0
20	855	3.549117684845	0
20	865	3.549187684848	0
20	865	3.549187684848	0
20	871	3.549233684848	0
20	871	3.549233684848	0
20	880	3.549243684848	0
20	880	3.549243684848	0
20	889	3.549491684848	0
20	889	3.549491684848	0
20	914	3.592844696492	0
20	914	3.592844696492	0
20	919	3.592890696492	0
20	919	3.592890696492	0
20	920	3.592890696492	0
20	920	3.592890696492	0
20	945	3.593148823961	0
20	945	3.593148823961	0
20	955	3.593338823913	0
20	955	3.593338823913	0
20	961	3.593384823913	0
20	961	3.593384823913	0
20	962	3.593384823913	0
20	962	3.593384823913	0
20	981	3.59364294674	0
20	981	3.59364294674	0
20	1038	4.548813502304	0
20	1038	4.548813502304	0
20	1072	4.549117697826	0
20	1072	4.549117697826	0
20	1082	4.549447697809	0
20	1082	4.549447697809	0
20	1088	4.549493697809	0
20	1088	4.549493697809	0
20	1097	4.549503697809	0
20	1097	4.549503697809	0
20	1106	4.549751697809	0
20	1106	4.549751697809	0
20	1129	4.592844662599	0
20	1129	4.592844662599	0
21	0	0	0
21	0	0	0
21	38	0.548813502304	0
21	38	0.548813502304	0
21	44	0.549261502304	0
21	44	0.549261502304	0
21	69	0.549311797573	0
21	69	0.549311797573	0
21	75	0.549349797573	0
21	75	0.549349797573	0
21	85	0.549359797573	0
21	85	0.549359797573	0
21	94	0.549607797573	0
21	94	0.549607797573	0
21	105	0.549717797573	0
21	105	0.549717797573	0
21	138	0.550022092783	0
21	138	0.550022092783	0
21	148	0.550612092747	0
21	148	0.550612092747	0
21	154	0.550658092747	0
21	154	0.550658092747	0
21	163	0.550668092747	0
21	163	0.550668092747	0
21	172	0.550916092747	0
21	172	0.550916092747	0
21	199	0.592844652555	0
21	199	0.592844652555	0
21	211	0.593292652555	0
21	211	0.593292652555	0
21	227	0.593482674041	0
21	227	0.593482674041	0
21	238	0.593520674041	0
21	238	0.593520674041	0
21	239	0.593520674041	0
21	239	0.593520674041	0
21	255	0.593778690708	0
21	255	0.593778690708	0
21	266	0.594008690733	0
21	266	0.594008690733	0
21	278	0.594054690733	0
21	278	0.594054690733	0
21	279	0.594054690733	0
21	279	0.594054690733	0
21	295	0.594312712245	0
21	295	0.594312712245	0
21	306	0.594742712257	0
21	306	0.594742712257	0
21	316	0.594788712257	0
21	316	0.594788712257	0
21	317	0.594788712257	0
21	317	0.594788712257	0
21	333	0.595046729053	0
21	333	0.595046729053	0
21	393	1.548813502304	0
21	393	1.548813502304	0
21	424	1.54911772325	0
21	424	1.54911772325	0
21	435	1.549527723231	0
21	435	1.549527723231	0
21	440	1.549573723231	0
21	440	1.549573723231	0
21	451	1.549583723231	0
21	451	1.549583723231	0
21	459	1.549831723231	0
21	459	1.549831723231	0
21	482	1.592844683544	0
21	482	1.592844683544	0
21	487	1.592890683544	0
21	487	1.592890683544	0
21	488	1.592890683544	0
21	488	1.592890683544	0
21	510	1.593148769871	0
21	510	1.593148769871	0
21	522	1.593658769886	0
21	522	1.593658769886	0
21	527	1.593704769886	0
21	527	1.593704769886	0
21	528	1.593704769886	0
21	528	1.593704769886	0
21	548	1.593962857086	0
21	548	1.593962857086	0
21	607	2.548813502304	0
21	607	2.548813502304	0
21	636	2.549117548673	0
21	636	2.549117548673	0
21	649	2.549647548546	0
21	649	2.549647548546	0
21	654	2.549693548546	0
21	654	2.549693548546	0
21	665	2.549703548546	0
21	665	2.549703548546	0
21	673	2.549951548546	0
21	673	2.549951548546	0
21	699	2.592844725397	0
21	699	2.592844725397	0
21	704	2.592890725397	0
21	704	2.592890725397	0
21	705	2.592890725397	0
21	705	2.592890725397	0
21	728	2.593148854834	0
21	728	2.593148854834	0
21	739	2.593438854857	0
21	739	2.593438854857	0
21	744	2.593484854857	0
21	744	2.593484854857	0
21	745	2.593484854857	0
21	745	2.593484854857	0
21	766	2.593742987176	0
21	766	2.593742987176	0
21	822	3.548813502304	0
21	822	3.548813502304	0
21	855	3.549117684845	0
21	855	3.549117684845	0
21	865	3.549187684848	0
21	865	3.549187684848	0
21	871	3.549233684848	0
21	871	3.549233684848	0
21	880	3.549243684848	0
21	880	3.549243684848	0
21	889	3.549491684848	0
21	889	3.549491684848	0
21	914	3.592844696492	0
21	914	3.592844696492	0
21	919	3.592890696492	0
21	919	3.592890696492	0
21	920	3.592890696492	0
21	920	3.592890696492	0
21	945	3.593148823961	0
21	945	3.593148823961	0
21	955	3.593338823913	0
21	955	3.593338823913	0
21	961	3.593384823913	0
21	961	3.593384823913	0
21	962	3.593384823913	0
21	962	3.593384823913	0
21	981	3.59364294674	0
21	981	3.59364294674	0
21	1038	4.548813502304	0
21	1038	4.548813502304	0
21	1072	4.549117697826	0
21	1072	4.549117697826	0
21	1082	4.549447697809	0
21	1082	4.549447697809	0
21	1088	4.549493697809	0
21	1088	4.549493697809	0
21	1097	4.549503697809	0
21	1097	4.549503697809	0
21	1106	4.549751697809	0
21	1106	4.549751697809	0
21	1129	4.592844662599	0
21	1129	4.592844662599	0
22	0	0	0
22	0	0	0
22	41	0.548813540355	0
22	41	0.548813540355	0
22	50	0.549261540355	0
22	50	0.549261540355	0
22	68	0.549311781699	0
22	68	0.549311781699	0
22	73	0.549349781699	0
22	73	0.549349781699	0
22	74	0.549349781699	0
22	74	0.549349781699	0
22	98	0.549607835629	0
22	98	0.549607835629	0
22	108	0.549717835632	0
22	108	0.549717835632	0
22	114	0.549763835632	0
22	114	0.549763835632	0
22	115	0.549763835632	0
22	115	0.549763835632	0
22	136	0.55002207695	0
22	136	0.55002207695	0
22	147	0.550612076987	0
22	147	0.550612076987	0
22	152	0.550658076987	0
22	152	0.550658076987	0
22	153	0.550658076987	0
22	153	0.550658076987	0
22	176	0.550916130815	0
22	176	0.550916130815	0
22	198	0.592844635426	0
22	198	0.592844635426	0
22	203	0.593292635426	0
22	203	0.593292635426	0
22	210	0.593292635426	0
22	210	0.593292635426	2
22	221	0.593482635426	2
22	221	0.593482635426	0
22	224	0.593482635426	0
22	224	0.593482635426	0
22	252	0.593778673589	0
22	252	0.593778673589	0
22	265	0.594008673621	0
22	265	0.594008673621	0
22	270	0.594054673621	0
22	270	0.594054673621	0
22	277	0.594054673621	0
22	277	0.594054673621	2
22	283	0.594064673621	2
22	283	0.594064673621	1
22	291	0.594312673621	1
22	291	0.594312673621	2
22	300	0.594742673621	2
22	300	0.594742673621	0
22	303	0.594742673621	0
22	303	0.594742673621	0
22	330	0.595046711953	0
22	330	0.595046711953	0
22	396	1.548813568233	0
22	396	1.548813568233	0
22	402	1.548859568233	0
22	402	1.548859568233	0
22	403	1.548859568233	0
22	403	1.548859568233	0
22	426	1.549117776804	0
22	426	1.549117776804	0
22	436	1.549527776814	0
22	436	1.549527776814	0
22	446	1.549573776814	0
22	446	1.549573776814	0
22	447	1.549573776814	0
22	447	1.549573776814	0
22	464	1.549831789174	0
22	464	1.549831789174	0
22	483	1.592844703099	0
22	483	1.592844703099	0
22	489	1.592890703099	0
22	489	1.592890703099	0
22	496	1.592890703099	0
22	496	1.592890703099	2
22	500	1.592900703099	2
22	500	1.592900703099	1
22	509	1.593148703099	1
22	509	1.593148703099	2
22	517	1.593658703099	2
22	517	1.593658703099	0
22	520	1.593658703099	0
22	520	1.593658703099	0
22	551	1.593962876633	0
22	551	1.593962876633	0
22	610	2.548813607947	0
22	610	2.548813607947	0
22	622	2.548859607947	0
22	622	2.548859607947	0
22	623	2.548859607947	0
22	623	2.548859607947	0
22	642	2.54911765307	0
22	642	2.54911765307	0
22	651	2.549647652981	0
22	651	2.549647652981	0
22	662	2.549693652981	0
22	662	2.549693652981	0
22	663	2.549693652981	0
22	663	2.549693652981	0
22	678	2.549951654228	0
22	678	2.549951654228	0
22	701	2.592844747229	0
22	701	2.592844747229	0
22	708	2.592890747229	0
22	708	2.592890747229	0
22	715	2.592890747229	0
22	715	2.592890747229	2
22	717	2.592900747229	2
22	717	2.592900747229	1
22	727	2.593148747229	1
22	727	2.593148747229	2
22	734	2.593438747229	2
22	734	2.593438747229	0
22	737	2.593438747229	0
22	737	2.593438747229	0
22	770	2.593743009014	0
22	770	2.593743009014	0
22	825	3.54881358966	0
22	825	3.54881358966	0
22	831	3.54885958966	0
22	831	3.54885958966	0
22	832	3.54885958966	0
22	832	3.54885958966	0
22	853	3.549117602418	0
22	853	3.549117602418	0
22	864	3.549187602447	0
22	864	3.549187602447	0
22	869	3.549233602447	0
22	869	3.549233602447	0
22	870	3.549233602447	0
22	870	3.549233602447	0
22	893	3.549491772155	0
22	893	3.549491772155	0
22	915	3.592844741561	0
22	915	3.592844741561	0
22	921	3.592890741561	0
22	921	3.592890741561	0
22	928	3.592890741561	0
22	928	3.592890741561	2
22	932	3.592900741561	2
22	932	3.592900741561	1
22	941	3.593148741561	1
22	941	3.593148741561	2
22	949	3.593338741561	2
22	949	3.593338741561	0
22	952	3.593338741561	0
22	952	3.593338741561	0
22	983	3.593642991795	0
22	983	3.593642991795	0
22	1041	4.548813547956	0
22	1041	4.548813547956	0
22	1047	4.548859547956	0
22	1047	4.548859547956	0
22	1048	4.548859547956	0
22	1048	4.548859547956	0
22	1074	4.549117725967	0
22	1074	4.549117725967	0
22	1083	4.549447725995	0
22	1083	4.549447725995	0
22	1094	4.549493725995	0
22	1094	4.549493725995	0
22	1095	4.549493725995	0
22	1095	4.549493725995	0
22	1110	4.549751743474	0
22	1110	4.549751743474	0
22	1131	4.592844709241	0
22	1131	4.592844709241	0
23	0	0	0
23	0	0	0
23	41	0.548813540355	0
23	41	0.548813540355	0
23	50	0.549261540355	0
23	50	0.549261540355	0
23	68	0.549311781699	0
23	68	0.549311781699	0
23	73	0.549349781699	0
23	73	0.549349781699	0
23	74	0.549349781699	0
23	74	0.549349781699	0
23	98	0.549607835629	0
23	98	0.549607835629	0
23	108	0.549717835632	0
23	108	0.549717835632	0
23	114	0.549763835632	0
23	114	0.549763835632	0
23	115	0.549763835632	0
23	115	0.549763835632	0
23	136	0.55002207695	0
23	136	0.55002207695	0
23	147	0.550612076987	0
23	147	0.550612076987	0
23	152	0.550658076987	0
23	152	0.550658076987	0
23	153	0.550658076987	0
23	153	0.550658076987	0
23	176	0.550916130815	0
23	176	0.550916130815	0
23	198	0.592844635426	0
23	198	0.592844635426	0
23	203	0.593292635426	0
23	203	0.593292635426	0
23	224	0.593482635426	0
23	224	0.593482635426	0
23	252	0.593778673589	0
23	252	0.593778673589	0
23	265	0.594008673621	0
23	265	0.594008673621	0
23	270	0.594054673621	0
23	270	0.594054673621	0
23	283	0.594064673621	0
23	283	0.594064673621	0
23	291	0.594312673621	0
23	291	0.594312673621	0
23	303	0.594742673621	0
23	303	0.594742673621	0
23	330	0.595046711953	0
23	330	0.595046711953	0
23	396	1.548813568233	0
23	396	1.548813568233	0
23	402	1.548859568233	0
23	402	1.548859568233	0
23	403	1.548859568233	0
23	403	1.548859568233	0
23	426	1.549117776804	0
23	426	1.549117776804	0
23	436	1.549527776814	0
23	436	1.549527776814	0
23	446	1.549573776814	0
23	446	1.549573776814	0
23	447	1.549573776814	0
23	447	1.549573776814	0
23	464	1.549831789174	0
23	464	1.549831789174	0
23	483	1.592844703099	0
23	483	1.592844703099	0
23	489	1.592890703099	0
23	489	1.592890703099	0
23	500	1.592900703099	0
23	500	1.592900703099	0
23	509	1.593148703099	0
23	509	1.593148703099	0
23	520	1.593658703099	0
23	520	1.593658703099	0
23	551	1.593962876633	0
23	551	1.593962876633	0
23	610	2.548813607947	0
23	610	2.548813607947	0
23	622	2.548859607947	0
23	622	2.548859607947	0
23	623	2.548859607947	0
23	623	2.548859607947	0
23	642	2.54911765307	0
23	642	2.54911765307	0
23	651	2.549647652981	0
23	651	2.549647652981	0
23	662	2.549693652981	0
23	662	2.549693652981	0
23	663	2.549693652981	0
23	663	2.549693652981	0
23	678	2.549951654228	0
23	678	2.549951654228	0
23	701	2.592844747229	0
23	701	2.592844747229	0
23	708	2.592890747229	0
23	708	2.592890747229	0
23	717	2.592900747229	0
23	717	2.592900747229	0
23	727	2.593148747229	0
23	727	2.593148747229	0
23	737	2.593438747229	0
23	737	2.593438747229	0
23	770	2.593743009014	0
23	770	2.593743009014	0
23	825	3.54881358966	0
23	825	3.54881358966	0
23	831	3.54885958966	0
23	831	3.54885958966	0
23	832	3.54885958966	0
23	832	3.54885958966	0
23	853	3.549117602418	0
23	853	3.549117602418	0
23	864	3.549187602447	0
23	864	3.549187602447	0
23	869	3.549233602447	0
23	869	3.549233602447	0
23	870	3.549233602447	0
23	870	3.549233602447	0
23	893	3.549491772155	0
23	893	3.549491772155	0
23	915	3.592844741561	0
23	915	3.592844741561	0
23	921	3.592890741561	0
23	921	3.592890741561	0
23	932	3.592900741561	0
23	932	3.592900741561	0
23	941	3.593148741561	0
23	941	3.593148741561	0
23	952	3.593338741561	0
23	952	3.593338741561	0
23	983	3.593642991795	0
23	983	3.593642991795	0
23	1041	4.548813547956	0
23	1041	4.548813547956	0
23	1047	4.548859547956	0
23	1047	4.548859547956	0
23	1048	4.548859547956	0
23	1048	4.548859547956	0
23	1074	4.549117725967	0
23	1074	4.549117725967	0
23	1083	4.549447725995	0
23	1083	4.549447725995	0
23	1094	4.549493725995	0
23	1094	4.549493725995	0
23	1095	4.549493725995	0
23	1095	4.549493725995	0
23	1110	4.549751743474	0
23	1110	4.549751743474	0
23	1131	4.592844709241	0
23	1131	4.592844709241	0
24	0	0	0
24	0	0	0
24	41	0.548813540355	0
24	41	0.548813540355	0
24	50	0.549261540355	0
24	50	0.549261540355	0
24	68	0.549311781699	0
24	68	0.549311781699	0
24	73	0.549349781699	0
24	73	0.549349781699	0
24	74	0.549349781699	0
24	74	0.549349781699	0
24	98	0.549607835629	0
24	98	0.549607835629	0
24	108	0.549717835632	0
24	108	0.549717835632	0
24	114	0.549763835632	0
24	114	0.549763835632	0
24	115	0.549763835632	0
24	115	0.549763835632	0
24	136	0.55002207695	0
24	136	0.55002207695	0
24	147	0.550612076987	0
24	147	0.550612076987	0
24	152	0.550658076987	0
24	152	0.550658076987	0
24	153	0.550658076987	0
24	153	0.550658076987	0
24	176	0.550916130815	0
24	176	0.550916130815	0
24	198	0.592844635426	0
24	198	0.592844635426	0
24	203	0.593292635426	0
24	203	0.593292635426	0
24	224	0.593482635426	0
24	224	0.593482635426	0
24	252	0.593778673589	0
24	252	0.593778673589	0
24	265	0.594008673621	0
24	265	0.594008673621	0
24	270	0.594054673621	0
24	270	0.594054673621	0
24	283	0.594064673621	0
24	283	0.594064673621	0
24	291	0.594312673621	0
24	291	0.594312673621	0
24	303	0.594742673621	0
24	303	0.594742673621	0
24	330	0.595046711953	0
24	330	0.595046711953	0
24	396	1.548813568233	0
24	396	1.548813568233	0
24	402	1.548859568233	0
24	402	1.548859568233	0
24	403	1.548859568233	0
24	403	1.548859568233	0
24	426	1.549117776804	0
24	426	1.549117776804	0
24	436	1.549527776814	0
24	436	1.549527776814	0
24	446	1.549573776814	0
24	446	1.549573776814	0
24	447	1.549573776814	0
24	447	1.549573776814	0
24	464	1.549831789174	0
24	464	1.549831789174	0
24	483	1.592844703099	0
24	483	1.592844703099	0
24	489	1.592890703099	0
24	489	1.592890703099	0
24	500	1.592900703099	0
24	500	1.592900703099	0
24	509	1.593148703099	0
24	509	1.593148703099	0
24	520	1.593658703099	0
24	520	1.593658703099	0
24	551	1.593962876633	0
24	551	1.593962876633	0
24	610	2.548813607947	0
24	610	2.548813607947	0
24	622	2.548859607947	0
24	622	2.548859607947	0
24	623	2.548859607947	0
24	623	2.548859607947	0
24	642	2.54911765307	0
24	642	2.54911765307	0
24	651	2.549647652981	0
24	651	2.549647652981	0
24	662	2.549693652981	0
24	662	2.549693652981	0
24	663	2.549693652981	0
24	663	2.549693652981	0
24	678	2.549951654228	0
24	678	2.549951654228	0
24	701	2.592844747229	0
24	701	2.592844747229	0
24	708	2.592890747229	0
24	708	2.592890747229	0
24	717	2.592900747229	0
24	717	2.592900747229	0
24	727	2.593148747229	0
24	727	2.593148747229	0
24	737	2.593438747229	0
24	737	2.593438747229	0
24	770	2.593743009014	0
24	770	2.593743009014	0
24	825	3.54881358966	0
24	825	3.54881358966	0
24	831	3.54885958966	0
24	831	3.54885958966	0
24	832	3.54885958966	0
24	832	3.54885958966	0
24	853	3.549117602418	0
24	853	3.549117602418	0
24	864	3.549187602447	0
24	864	3.549187602447	0
24	869	3.549233602447	0
24	869	3.549233602447	0
24	870	3.549233602447	0
24	870	3.549233602447	0
24	893	3.549491772155	0
24	893	3.549491772155	0
24	915	3.592844741561	0
24	915	3.592844741561	0
24	921	3.592890741561	0
24	921	3.592890741561	0
24	932	3.592900741561	0
24	932	3.592900741561	0
24	941	3.593148741561	0
24	941	3.593148741561	0
24	952	3.593338741561	0
24	952	3.593338741561	0
24	983	3.593642991795	0
24	983	3.593642991795	0
24	1041	4.548813547956	0
24	1041	4.548813547956	0
24	1047	4.548859547956	0
24	1047	4.548859547956	0
24	1048	4.548859547956	0
24	1048	4.548859547956	0
24	1074	4.549117725967	0
24	1074	4.549117725967	0
24	1083	4.549447725995	0
24	1083	4.549447725995	0
24	1094	4.549493725995	0
24	1094	4.549493725995	0
24	1095	4.549493725995	0
24	1095	4.549493725995	0
24	1110	4.549751743474	0
24	1110	4.549751743474	0
24	1131	4.592844709241	0
24	1131	4.592844709241	0
25	0	0	0
25	0	0	0
25	41	0.548813540355	0
25	41	0.548813540355	0
25	50	0.549261540355	0
25	50	0.549261540355	0
25	68	0.549311781699	0
25	68	0.549311781699	0
25	73	0.549349781699	0
25	73	0.549349781699	0
25	74	0.549349781699	0
25	74	0.549349781699	0
25	98	0.549607835629	0
25	98	0.549607835629	0
25	108	0.549717835632	0
25	108	0.549717835632	0
25	114	0.549763835632	0
25	114	0.549763835632	0
25	115	0.549763835632	0
25	115	0.549763835632	0
25	136	0.55002207695	0
25	136	0.55002207695	0
25	147	0.550612076987	0
25	147	0.550612076987	0
25	152	0.550658076987	0
25	152	0.550658076987	0
25	153	0.550658076987	0
25	153	0.550658076987	0
25	176	0.550916130815	0
25	176	0.550916130815	0
25	198	0.592844635426	0
25	198	0.592844635426	0
25	203	0.593292635426	0
25	203	0.593292635426	0
25	224	0.593482635426	0
25	224	0.593482635426	0
25	252	0.593778673589	0
25	252	0.593778673589	0
25	265	0.594008673621	0
25	265	0.594008673621	0
25	270	0.594054673621	0
25	270	0.594054673621	0
25	283	0.594064673621	0
25	283	0.594064673621	0
25	291	0.594312673621	0
25	291	0.594312673621	0
25	303	0.594742673621	0
25	303	0.594742673621	0
25	330	0.595046711953	0
25	330	0.595046711953	0
25	396	1.548813568233	0
25	396	1.548813568233	0
25	402	1.548859568233	0
25	402	1.548859568233	0
25	403	1.548859568233	0
25	403	1.548859568233	0
25	426	1.549117776804	0
25	426	1.549117776804	0
25	436	1.549527776814	0
25	436	1.549527776814	0
25	446	1.549573776814	0
25	446	1.549573776814	0
25	447	1.549573776814	0
25	447	1.549573776814	0
25	464	1.549831789174	0
25	464	1.549831789174	0
25	483	1.592844703099	0
25	483	1.592844703099	0
25	489	1.592890703099	0
25	489	1.592890703099	0
25	500	1.592900703099	0
25	500	1.592900703099	0
25	509	1.593148703099	0
25	509	1.593148703099	0
25	520	1.593658703099	0
25	520	1.593658703099	0
25	551	1.593962876633	0
25	551	1.593962876633	0
25	610	2.548813607947	0
25	610	2.548813607947	0
25	622	2.548859607947	0
25	622	2.548859607947	0
25	623	2.548859607947	0
25	623	2.548859607947	0
25	642	2.54911765307	0
25	642	2.54911765307	0
25	651	2.549647652981	0
25	651	2.549647652981	0
25	662	2.549693652981	0
25	662	2.549693652981	0
25	663	2.549693652981	0
25	663	2.549693652981	0
25	678	2.549951654228	0
25	678	2.549951654228	0
25	701	2.592844747229	0
25	701	2.592844747229	0
25	708	2.592890747229	0
25	708	2.592890747229	0
25	717	2.592900747229	0
25	717	2.592900747229	0
25	727	2.593148747229	0
25	727	2.593148747229	0
25	737	2.593438747229	0
25	737	2.593438747229	0
25	770	2.593743009014	0
25	770	2.593743009014	0
25	825	3.54881358966	0
25	825	3.54881358966	0
25	831	3.54885958966	0
25	831	3.54885958966	0
25	832	3.54885958966	0
25	832	3.54885958966	0
25	853	3.549117602418	0
25	853	3.549117602418	0
25	864	3.549187602447	0
25	864	3.549187602447	0
25	869	3.549233602447	0
25	869	3.549233602447	0
25	870	3.549233602447	0
25	870	3.549233602447	0
25	893	3.549491772155	0
25	893	3.549491772155	0
25	915	3.592844741561	0
25	915	3.592844741561	0
25	921	3.592890741561	0
25	921	3.592890741561	0
25	932	3.592900741561	0
25	932	3.592900741561	0
25	941	3.593148741561	0
25	941	3.593148741561	0
25	952	3.593338741561	0
25	952	3.593338741561	0
25	983	3.593642991795	0
25	983	3.593642991795	0
25	1041	4.548813547956	0
25	1041	4.548813547956	0
25	1047	4.548859547956	0
25	1047	4.548859547956	0
25	1048	4.548859547956	0
25	1048	4.548859547956	0
25	1074	4.549117725967	0
25	1074	4.549117725967	0
25	1083	4.549447725995	0
25	1083	4.549447725995	0
25	1094	4.549493725995	0
25	1094	4.549493725995	0
25	1095	4.549493725995	0
25	1095	4.549493725995	0
25	1110	4.549751743474	0
25	1110	4.549751743474	0
25	1131	4.592844709241	0
25	1131	4.592844709241	0
26	0	0	0
26	0	0	0
26	41	0.548813540355	0
26	41	0.548813540355	0
26	50	0.549261540355	0
26	50	0.549261540355	0
26	68	0.549311781699	0
26	68	0.549311781699	0
26	73	0.549349781699	0
26	73	0.549349781699	0
26	74	0.549349781699	0
26	74	0.549349781699	0
26	98	0.549607835629	0
26	98	0.549607835629	0
26	108	0.549717835632	0
26	108	0.549717835632	0
26	114	0.549763835632	0
26	114	0.549763835632	0
26	115	0.549763835632	0
26	115	0.549763835632	0
26	136	0.55002207695	0
26	136	0.55002207695	0
26	147	0.550612076987	0
26	147	0.550612076987	0
26	152	0.550658076987	0
26	152	0.550658076987	0
26	153	0.550658076987	0
26	153	0.550658076987	0
26	176	0.550916130815	0
26	176	0.550916130815	0
26	198	0.592844635426	0
26	198	0.592844635426	0
26	203	0.593292635426	0
26	203	0.593292635426	0
26	224	0.593482635426	0
26	224	0.593482635426	0
26	252	0.593778673589	0
26	252	0.593778673589	0
26	265	0.594008673621	0
26	265	0.594008673621	0
26	270	0.594054673621	0
26	270	0.594054673621	0
26	283	0.594064673621	0
26	283	0.594064673621	0
26	291	0.594312673621	0
26	291	0.594312673621	0
26	303	0.594742673621	0
26	303	0.594742673621	0
26	330	0.595046711953	0
26	330	0.595046711953	0
26	396	1.548813568233	0
26	396	1.548813568233	0
26	402	1.548859568233	0
26	402	1.548859568233	0
26	403	1.548859568233	0
26	403	1.548859568233	0
26	426	1.549117776804	0
26	426	1.549117776804	0
26	436	1.549527776814	0
26	436	1.549527776814	0
26	446	1.549573776814	0
26	446	1.549573776814	0
26	447	1.549573776814	0
26	447	1.549573776814	0
26	464	1.549831789174	0
26	464	1.549831789174	0
26	483	1.592844703099	0
26	483	1.592844703099	0
26	489	1.592890703099	0
26	489	1.592890703099	0
26	500	1.592900703099	0
26	500	1.592900703099	0
26	509	1.593148703099	0
26	509	1.593148703099	0
26	520	1.593658703099	0
26	520	1.593658703099	0
26	551	1.593962876633	0
26	551	1.593962876633	0
26	610	2.548813607947	0
26	610	2.548813607947	0
26	622	2.548859607947	0
26	622	2.548859607947	0
26	623	2.548859607947	0
26	623	2.548859607947	0
26	642	2.54911765307	0
26	642	2.54911765307	0
26	651	2.549647652981	0
26	651	2.549647652981	0
[...]
29	748	2.593484878119	0
29	748	2.593484878119	0
29	755	2.593494878119	0
29	755	2.593494878119	0
29	765	2.593742878119	0
29	765	2.593742878119	0
29	824	3.548813585911	0
29	824	3.548813585911	0
29	829	3.548859585911	0
29	829	3.548859585911	0
29	830	3.548859585911	0
29	830	3.548859585911	0
29	857	3.549117721337	0
29	857	3.549117721337	0
29	866	3.549187721325	0
29	866	3.549187721325	0
29	877	3.549233721325	0
29	877	3.549233721325	0
29	878	3.549233721325	0
29	878	3.549233721325	0
29	891	3.549491768421	0
29	891	3.549491768421	0
29	912	3.592844616389	0
29	912	3.592844616389	0
29	947	3.593148866727	0
29	947	3.593148866727	0
29	956	3.593338866681	0
29	956	3.593338866681	0
29	963	3.593384866681	0
29	963	3.593384866681	0
29	970	3.593394866681	0
29	970	3.593394866681	0
29	980	3.593642866681	0
29	980	3.593642866681	0
29	1040	4.548813547634	0
29	1040	4.548813547634	0
29	1045	4.548859547634	0
29	1045	4.548859547634	0
29	1046	4.548859547634	0
29	1046	4.548859547634	0
29	1070	4.549117684743	0
29	1070	4.549117684743	0
29	1081	4.549447684697	0
29	1081	4.549447684697	0
29	1086	4.549493684697	0
29	1086	4.549493684697	0
29	1087	4.549493684697	0
29	1087	4.549493684697	0
29	1108	4.549751743153	0
29	1108	4.549751743153	0
29	1127	4.592844616389	0
29	1127	4.592844616389	0
30	0	0	0
30	0	0	0
30	40	0.548813536678	0
30	40	0.548813536678	0
30	45	0.549261536678	0
30	45	0.549261536678	0
30	70	0.549311797692	0
30	70	0.549311797692	0
30	82	0.549349797692	0
30	82	0.549349797692	0
30	83	0.549349797692	0
30	83	0.549349797692	0
30	96	0.549607831963	0
30	96	0.549607831963	0
30	107	0.549717831973	0
30	107	0.549717831973	0
30	112	0.549763831973	0
30	112	0.549763831973	0
30	113	0.549763831973	0
30	113	0.549763831973	0
30	140	0.550022092971	0
30	140	0.550022092971	0
30	149	0.550612093061	0
30	149	0.550612093061	0
30	160	0.550658093061	0
30	160	0.550658093061	0
30	161	0.550658093061	0
30	161	0.550658093061	0
30	174	0.550916127175	0
30	174	0.550916127175	0
30	196	0.592844616389	0
30	196	0.592844616389	0
30	202	0.593292616389	0
30	202	0.593292616389	0
30	226	0.593482654506	0
30	226	0.593482654506	0
30	231	0.593520654506	0
30	231	0.593520654506	0
30	243	0.593530654506	0
30	243	0.593530654506	0
30	251	0.593778654506	0
30	251	0.593778654506	0
30	263	0.594008654506	0
30	263	0.594008654506	0
30	293	0.59431269274	0
30	293	0.59431269274	0
30	305	0.594742692785	0
30	305	0.594742692785	0
30	310	0.594788692785	0
30	310	0.594788692785	0
30	321	0.594798692785	0
30	321	0.594798692785	0
30	329	0.595046692785	0
30	329	0.595046692785	0
30	395	1.548813566111	0
30	395	1.548813566111	0
30	400	1.548859566111	0
30	400	1.548859566111	0
30	401	1.548859566111	0
30	401	1.548859566111	0
30	428	1.549117779305	0
30	428	1.549117779305	0
30	437	1.549527779316	0
30	437	1.549527779316	0
30	448	1.549573779316	0
30	448	1.549573779316	0
30	449	1.549573779316	0
30	449	1.549573779316	0
30	462	1.549831787097	0
30	462	1.549831787097	0
30	480	1.592844616389	0
30	480	1.592844616389	0
30	513	1.593148789812	0
30	513	1.593148789812	0
30	523	1.593658789864	0
30	523	1.593658789864	0
30	529	1.593704789864	0
30	529	1.593704789864	0
30	538	1.593714789864	0
30	538	1.593714789864	0
30	547	1.593962789864	0
30	547	1.593962789864	0
30	611	2.548813608004	0
30	611	2.548813608004	0
30	624	2.548859608004	0
30	624	2.548859608004	0
30	625	2.548859608004	0
30	625	2.548859608004	0
30	640	2.549117646531	0
30	640	2.549117646531	0
30	650	2.5496476465	0
30	650	2.5496476465	0
30	660	2.5496936465	0
30	660	2.5496936465	0
30	661	2.5496936465	0
30	661	2.5496936465	0
30	680	2.549951654313	0
30	680	2.549951654313	0
30	697	2.592844616389	0
30	697	2.592844616389	0
30	732	2.593148878074	0
30	732	2.593148878074	0
30	741	2.593438878119	0
30	741	2.593438878119	0
30	748	2.593484878119	0
30	748	2.593484878119	0
30	755	2.593494878119	0
30	755	2.593494878119	0
30	765	2.593742878119	0
30	765	2.593742878119	0
30	824	3.548813585911	0
30	824	3.548813585911	0
30	829	3.548859585911	0
30	829	3.548859585911	0
30	830	3.548859585911	0
30	830	3.548859585911	0
30	857	3.549117721337	0
30	857	3.549117721337	0
30	866	3.549187721325	0
30	866	3.549187721325	0
30	877	3.549233721325	0
30	877	3.549233721325	0
30	878	3.549233721325	0
30	878	3.549233721325	0
30	891	3.549491768421	0
30	891	3.549491768421	0
30	912	3.592844616389	0
30	912	3.592844616389	0
30	947	3.593148866727	0
30	947	3.593148866727	0
30	956	3.593338866681	0
30	956	3.593338866681	0
30	963	3.593384866681	0
30	963	3.593384866681	0
30	970	3.593394866681	0
30	970	3.593394866681	0
30	980	3.593642866681	0
30	980	3.593642866681	0
30	1040	4.548813547634	0
30	1040	4.548813547634	0
30	1045	4.548859547634	0
30	1045	4.548859547634	0
30	1046	4.548859547634	0
30	1046	4.548859547634	0
30	1070	4.549117684743	0
30	1070	4.549117684743	0
30	1081	4.549447684697	0
30	1081	4.549447684697	0
30	1086	4.549493684697	0
30	1086	4.549493684697	0
30	1087	4.549493684697	0
30	1087	4.549493684697	0
30	1108	4.549751743153	0
30	1108	4.549751743153	0
30	1127	4.592844616389	0
30	1127	4.592844616389	0
31	0	0	0
31	0	0	0
31	40	0.548813536678	0
31	40	0.548813536678	0
31	45	0.549261536678	0
31	45	0.549261536678	0
31	70	0.549311797692	0
31	70	0.549311797692	0
31	82	0.549349797692	0
31	82	0.549349797692	0
31	83	0.549349797692	0
31	83	0.549349797692	0
31	96	0.549607831963	0
31	96	0.549607831963	0
31	107	0.549717831973	0
31	107	0.549717831973	0
31	112	0.549763831973	0
31	112	0.549763831973	0
31	113	0.549763831973	0
31	113	0.549763831973	0
31	140	0.550022092971	0
31	140	0.550022092971	0
31	149	0.550612093061	0
31	149	0.550612093061	0
31	160	0.550658093061	0
31	160	0.550658093061	0
31	161	0.550658093061	0
31	161	0.550658093061	0
31	174	0.550916127175	0
31	174	0.550916127175	0
31	196	0.592844616389	0
31	196	0.592844616389	0
31	202	0.593292616389	0
31	202	0.593292616389	0
31	226	0.593482654506	0
31	226	0.593482654506	0
31	231	0.593520654506	0
31	231	0.593520654506	0
31	243	0.593530654506	0
31	243	0.593530654506	0
31	251	0.593778654506	0
31	251	0.593778654506	0
31	263	0.594008654506	0
31	263	0.594008654506	0
31	293	0.59431269274	0
31	293	0.59431269274	0
31	305	0.594742692785	0
31	305	0.594742692785	0
31	310	0.594788692785	0
31	310	0.594788692785	0
31	321	0.594798692785	0
31	321	0.594798692785	0
31	329	0.595046692785	0
31	329	0.595046692785	0
31	395	1.548813566111	0
31	395	1.548813566111	0
31	400	1.548859566111	0
31	400	1.548859566111	0
31	401	1.548859566111	0
31	401	1.548859566111	0
31	428	1.549117779305	0
31	428	1.549117779305	0
31	437	1.549527779316	0
31	437	1.549527779316	0
31	448	1.549573779316	0
31	448	1.549573779316	0
31	449	1.549573779316	0
31	449	1.549573779316	0
31	462	1.549831787097	0
31	462	1.549831787097	0
31	480	1.592844616389	0
31	480	1.592844616389	0
31	513	1.593148789812	0
31	513	1.593148789812	0
31	523	1.593658789864	0
31	523	1.593658789864	0
31	529	1.593704789864	0
31	529	1.593704789864	0
31	538	1.593714789864	0
31	538	1.593714789864	0
31	547	1.593962789864	0
31	547	1.593962789864	0
31	611	2.548813608004	0
31	611	2.548813608004	0
31	624	2.548859608004	0
31	624	2.548859608004	0
31	625	2.548859608004	0
31	625	2.548859608004	0
31	640	2.549117646531	0
31	640	2.549117646531	0
31	650	2.5496476465	0
31	650	2.5496476465	0
31	660	2.5496936465	0
31	660	2.5496936465	0
31	661	2.5496936465	0
31	661	2.5496936465	0
31	680	2.549951654313	0
31	680	2.549951654313	0
31	697	2.592844616389	0
31	697	2.592844616389	0
31	732	2.593148878074	0
31	732	2.593148878074	0
31	741	2.593438878119	0
31	741	2.593438878119	0
31	748	2.593484878119	0
31	748	2.593484878119	0
31	755	2.593494878119	0
31	755	2.593494878119	0
31	765	2.593742878119	0
31	765	2.593742878119	0
31	824	3.548813585911	0
31	824	3.548813585911	0
31	829	3.548859585911	0
31	829	3.548859585911	0
31	830	3.548859585911	0
31	830	3.548859585911	0
31	857	3.549117721337	0
31	857	3.549117721337	0
31	866	3.549187721325	0
31	866	3.549187721325	0
31	877	3.549233721325	0
31	877	3.549233721325	0
31	878	3.549233721325	0
31	878	3.549233721325	0
31	891	3.549491768421	0
31	891	3.549491768421	0
31	912	3.592844616389	0
31	912	3.592844616389	0
31	947	3.593148866727	0
31	947	3.593148866727	0
31	956	3.593338866681	0
31	956	3.593338866681	0
31	963	3.593384866681	0
31	963	3.593384866681	0
31	970	3.593394866681	0
31	970	3.593394866681	0
31	980	3.593642866681	0
31	980	3.593642866681	0
31	1040	4.548813547634	0
31	1040	4.548813547634	0
31	1045	4.548859547634	0
31	1045	4.548859547634	0
31	1046	4.548859547634	0
31	1046	4.548859547634	0
31	1070	4.549117684743	0
31	1070	4.549117684743	0
31	1081	4.549447684697	0
31	1081	4.549447684697	0
31	1086	4.549493684697	0
31	1086	4.549493684697	0
31	1087	4.549493684697	0
31	1087	4.549493684697	0
31	1108	4.549751743153	0
31	1108	4.549751743153	0
31	1127	4.592844616389	0
31	1127	4.592844616389	0
32	29	0.548813502304	0
32	385	1.548813502304	1
32	599	2.548813502304	2
32	814	3.548813502304	3
32	1030	4.548813502304	4
33	31	0.548813502304	1
34	34	0.548813502304	64
34	81	0.549349797573	120
34	389	1.548813502304	120
34	603	2.548813502304	120
34	818	3.548813502304	120
34	1034	4.548813502304	120
35	37	0.548813502304	64
35	84	0.549359797573	14
35	104	0.549717797573	120
35	162	0.550668092747	14
35	392	1.548813502304	120
35	450	1.549583723231	14
35	606	2.548813502304	120
35	664	2.549703548546	14
35	821	3.548813502304	120
35	879	3.549243684848	14
35	1037	4.548813502304	120
35	1096	4.549503697809	14
36	38	0.548813502304	1
36	39	0.548813502304	2
36	43	0.549261502304	1
36	44	0.549261502304	0
36	85	0.549359797573	1
36	86	0.549359797573	2
36	93	0.549607797573	1
36	94	0.549607797573	0
36	105	0.549717797573	1
36	106	0.549717797573	2
36	110	0.549763797573	1
36	111	0.549763797573	0
36	163	0.550668092747	1
36	164	0.550668092747	2
36	171	0.550916092747	1
36	172	0.550916092747	0
36	393	1.548813502304	1
36	394	1.548813502304	2
36	398	1.548859502304	1
36	399	1.548859502304	0
36	451	1.549583723231	1
36	452	1.549583723231	2
36	458	1.549831723231	1
36	459	1.549831723231	0
36	607	2.548813502304	1
36	608	2.548813502304	2
36	612	2.548859502304	1
36	613	2.548859502304	0
36	665	2.549703548546	1
36	666	2.549703548546	2
36	672	2.549951548546	1
36	673	2.549951548546	0
36	822	3.548813502304	1
36	823	3.548813502304	2
36	827	3.548859502304	1
36	828	3.548859502304	0
36	880	3.549243684848	1
36	881	3.549243684848	2
36	888	3.549491684848	1
36	889	3.549491684848	0
36	1038	4.548813502304	1
36	1039	4.548813502304	2
36	1043	4.548859502304	1
36	1044	4.548859502304	0
36	1097	4.549503697809	1
36	1098	4.549503697809	2
36	1105	4.549751697809	1
36	1106	4.549751697809	0
37	46	0.549261536678	64
37	83	0.549349797692	64
37	97	0.549607831963	14
37	113	0.549763831973	120
37	141	0.550022092971	14
37	161	0.550658093061	120
37	175	0.550916127175	14
37	232	0.593520654506	64
37	294	0.59431269274	14
37	311	0.594788692785	120
37	401	1.548859566111	120
37	429	1.549117779305	14
37	449	1.549573779316	120
37	463	1.549831787097	14
37	514	1.593148789812	14
37	530	1.593704789864	120
37	625	2.548859608004	120
37	641	2.549117646531	14
37	661	2.5496936465	120
37	681	2.549951654313	14
37	733	2.593148878074	14
37	749	2.593484878119	120
37	830	3.548859585911	120
37	858	3.549117721337	14
37	878	3.549233721325	120
37	892	3.549491768421	14
37	948	3.593148866727	14
37	964	3.593384866681	120
37	1046	4.548859547634	120
37	1071	4.549117684743	14
37	1087	4.549493684697	120
37	1109	4.549751743153	14
38	46	0.549261536678	64
38	232	0.593520654506	64
38	311	0.594788692785	120
38	530	1.593704789864	120
38	749	2.593484878119	120
38	964	3.593384866681	120
39	51	0.549261540355	64
39	74	0.549349781699	64
39	99	0.549607835629	14
39	115	0.549763835632	120
39	137	0.55002207695	14
39	153	0.550658076987	120
39	177	0.550916130815	14
39	204	0.593292635426	64
39	253	0.593778673589	14
39	271	0.594054673621	120
39	331	0.595046711953	14
39	403	1.548859568233	120
39	427	1.549117776804	14
39	447	1.549573776814	120
39	465	1.549831789174	14
39	490	1.592890703099	120
39	552	1.593962876633	14
39	623	2.548859607947	120
39	643	2.54911765307	14
39	663	2.549693652981	120
39	679	2.549951654228	14
39	709	2.592890747229	120
39	771	2.593743009014	14
39	832	3.54885958966	120
39	854	3.549117602418	14
39	870	3.549233602447	120
39	894	3.549491772155	14
39	922	3.592890741561	120
39	984	3.593642991795	14
39	1048	4.548859547956	120
39	1075	4.549117725967	14
39	1095	4.549493725995	120
39	1111	4.549751743474	14
40	51	0.549261540355	64
40	204	0.593292635426	64
40	271	0.594054673621	120
40	490	1.592890703099	120
40	709	2.592890747229	120
40	922	3.592890741561	120
41	56	0.549261649949	64
41	101	0.549607945195	14
41	117	0.549763945179	120
41	179	0.550916240312	14
41	217	0.593292768826	64
41	241	0.593520769179	64
41	259	0.593778807017	14
41	281	0.594054807069	120
41	299	0.594312807401	14
41	319	0.594788807433	120
41	337	0.595046845434	14
41	405	1.548859612778	120
41	467	1.549831833683	14
41	498	1.592890783632	120
41	516	1.59314886781	14
41	536	1.593704867822	120
41	554	1.593962957121	14
41	615	2.548859525493	120
41	675	2.549951571589	14
41	707	2.592890735941	120
41	731	2.593148869759	14
41	747	2.593484869697	120
41	769	2.593742997653	14
41	834	3.548859593574	120
41	896	3.549491776123	14
41	930	3.592890742567	120
41	944	3.593148755174	14
41	960	3.593384755226	120
41	986	3.593642992839	14
41	1050	4.548859600066	120
41	1113	4.54975179555	14
42	56	0.549261649949	64
42	117	0.549763945179	120
42	217	0.593292768826	64
42	405	1.548859612778	120
42	615	2.548859525493	120
42	834	3.548859593574	120
42	1050	4.548859600066	120
43	59	0.549261649949	1
44	62	0.549261649949	64
44	123	0.549763945179	120
44	411	1.548859612778	120
44	621	2.548859525493	120
44	840	3.548859593574	120
44	1056	4.548859600066	120
45	65	0.549311649949	64
45	124	0.549773945179	14
45	144	0.550611945179	120
45	412	1.548869612778	14
45	432	1.549527612778	120
45	626	2.548869525493	14
45	646	2.549647525493	120
45	841	3.548869593574	14
45	861	3.549187593574	120
45	1057	4.548869600066	14
45	1078	4.549447600066	120
46	66	0.549311649949	1
46	67	0.549311649949	2
46	71	0.549349649949	1
46	72	0.549349649949	0
46	125	0.549773945179	1
46	126	0.549773945179	2
46	134	0.550021945179	1
46	135	0.550021945179	0
46	145	0.550611945179	1
46	146	0.550611945179	2
46	150	0.550657945179	1
46	151	0.550657945179	0
46	413	1.548869612778	1
46	414	1.548869612778	2
46	422	1.549117612778	1
46	423	1.549117612778	0
46	433	1.549527612778	1
46	434	1.549527612778	2
46	438	1.549573612778	1
46	439	1.549573612778	0
46	627	2.548869525493	1
46	628	2.548869525493	2
46	634	2.549117525493	1
46	635	2.549117525493	0
46	647	2.549647525493	1
46	648	2.549647525493	2
46	652	2.549693525493	1
46	653	2.549693525493	0
46	842	3.548869593574	1
46	843	3.548869593574	2
46	851	3.549117593574	1
46	852	3.549117593574	0
46	862	3.549187593574	1
46	863	3.549187593574	2
46	867	3.549233593574	1
46	868	3.549233593574	0
46	1058	4.548869600066	1
46	1059	4.548869600066	2
46	1068	4.549117600066	1
46	1069	4.549117600066	0
46	1079	4.549447600066	1
46	1080	4.549447600066	2
46	1084	4.549493600066	1
46	1085	4.549493600066	0
47	76	0.549349797573	64
47	139	0.550022092783	14
47	155	0.550658092747	120
47	212	0.593292652555	64
47	239	0.593520674041	64
47	256	0.593778690708	14
47	279	0.594054690733	120
47	296	0.594312712245	14
47	317	0.594788712257	120
47	334	0.595046729053	14
47	425	1.54911772325	14
47	441	1.549573723231	120
47	488	1.592890683544	120
47	511	1.593148769871	14
47	528	1.593704769886	120
47	549	1.593962857086	14
47	637	2.549117548673	14
47	655	2.549693548546	120
47	705	2.592890725397	120
47	729	2.593148854834	14
47	745	2.593484854857	120
47	767	2.593742987176	14
47	856	3.549117684845	14
47	872	3.549233684848	120
47	920	3.592890696492	120
47	946	3.593148823961	14
47	962	3.593384823913	120
47	982	3.59364294674	14
47	1073	4.549117697826	14
47	1089	4.549493697809	120
48	76	0.549349797573	64
48	155	0.550658092747	120
48	212	0.593292652555	64
48	441	1.549573723231	120
48	655	2.549693548546	120
48	872	3.549233684848	120
48	1089	4.549493697809	120
49	159	0.550658092747	0
49	445	1.549573723231	1
49	659	2.549693548546	2
49	876	3.549233684848	3
49	1093	4.549493697809	4
50	159	0.550658092747	0.001844590443
50	445	1.549573723231	0.000760220927
50	659	2.549693548546	0.000880046242
50	876	3.549233684848	0.000420182544
50	1093	4.549493697809	0.000680195505
51	187	0.592844616389	0
51	472	1.592844616389	1
51	689	2.592844616389	2
51	904	3.592844616389	3
51	1119	4.592844616389	4
52	189	0.592844616389	1
53	192	0.592844616389	64
53	237	0.593520654506	120
53	476	1.592844616389	120
53	693	2.592844616389	120
53	908	3.592844616389	120
53	1123	4.592844616389	120
54	195	0.592844616389	64
54	242	0.593530654506	14
54	262	0.594008654506	120
54	320	0.594798692785	14
54	479	1.592844616389	120
54	537	1.593714789864	14
54	696	2.592844616389	120
54	754	2.593494878119	14
54	911	3.592844616389	120
54	969	3.593394866681	14
54	1126	4.592844616389	120
55	196	0.592844616389	1
55	197	0.592844616389	2
55	201	0.593292616389	1
55	202	0.593292616389	0
55	243	0.593530654506	1
55	244	0.593530654506	2
55	250	0.593778654506	1
55	251	0.593778654506	0
55	263	0.594008654506	1
55	264	0.594008654506	2
55	268	0.594054654506	1
55	269	0.594054654506	0
55	321	0.594798692785	1
55	322	0.594798692785	2
55	328	0.595046692785	1
55	329	0.595046692785	0
55	480	1.592844616389	1
55	481	1.592844616389	2
55	485	1.592890616389	1
55	486	1.592890616389	0
55	538	1.593714789864	1
55	539	1.593714789864	2
55	546	1.593962789864	1
55	547	1.593962789864	0
55	697	2.592844616389	1
55	698	2.592844616389	2
55	702	2.592890616389	1
55	703	2.592890616389	0
55	755	2.593494878119	1
55	756	2.593494878119	2
55	764	2.593742878119	1
55	765	2.593742878119	0
55	912	3.592844616389	1
55	913	3.592844616389	2
55	917	3.592890616389	1
55	918	3.592890616389	0
55	970	3.593394866681	1
55	971	3.593394866681	2
55	979	3.593642866681	1
55	980	3.593642866681	0
55	1127	4.592844616389	1
55	1128	4.592844616389	2
56	207	0.593292635426	1
57	210	0.593292635426	64
57	277	0.594054673621	120
57	496	1.592890703099	120
57	715	2.592890747229	120
57	928	3.592890741561	120
58	223	0.593482635426	64
58	282	0.594064673621	14
58	302	0.594742673621	120
58	499	1.592900703099	14
58	519	1.593658703099	120
58	716	2.592900747229	14
58	736	2.593438747229	120
58	931	3.592900741561	14
58	951	3.593338741561	120
59	224	0.593482635426	1
59	225	0.593482635426	2
59	229	0.593520635426	1
59	230	0.593520635426	0
59	283	0.594064673621	1
59	284	0.594064673621	2
59	290	0.594312673621	1
59	291	0.594312673621	0
59	303	0.594742673621	1
59	304	0.594742673621	2
59	308	0.594788673621	1
59	309	0.594788673621	0
59	500	1.592900703099	1
59	501	1.592900703099	2
59	508	1.593148703099	1
59	509	1.593148703099	0
59	520	1.593658703099	1
59	521	1.593658703099	2
59	525	1.593704703099	1
59	526	1.593704703099	0
59	717	2.592900747229	1
59	718	2.592900747229	2
59	726	2.593148747229	1
59	727	2.593148747229	0
59	737	2.593438747229	1
59	738	2.593438747229	2
59	742	2.593484747229	1
59	743	2.593484747229	0
59	932	3.592900741561	1
59	933	3.592900741561	2
59	940	3.593148741561	1
59	941	3.593148741561	0
59	952	3.593338741561	1
59	953	3.593338741561	2
59	957	3.593384741561	1
59	958	3.593384741561	0
60	315	0.594788692785	0
60	534	1.593704789864	1
60	753	2.593484878119	2
60	968	3.593384866681	3
61	315	0.594788692785	0.001944076396
61	534	1.593704789864	0.000860173475
61	753	2.593484878119	0.00064026173
61	968	3.593384866681	0.000540250292

