version 2
run Ieee80211MacWithIeee80211ScalarRadio_config-0-20171114-07:35:19-5064
attr configname Ieee80211MacWithIeee80211ScalarRadio_config
attr datetime 20171114-07:35:19
attr experiment Ieee80211MacWithIeee80211ScalarRadio_config
attr inifile omnetpp.ini
attr iterationvars ""
attr iterationvarsf ""
attr measurement ""
attr network UsingCSMACAwithNoRTS
attr processid 5064
attr repetition 0
attr replication #0
attr resultdir results
attr runnumber 0
attr seedset 0
param *.host[*].wlan[*].typename "\"Ieee80211Nic\""
param *.host[*].wlan[*].mgmtType "\"Ieee80211MgmtAdhoc\""
param *.radioMediumType "\"Ieee80211ScalarRadioMedium\""
param **.wlan[*].bitrate 54Mbps
param *.host[*].wlan[*].radioType "\"Ieee80211ScalarRadio\""
param **.mac.dataBitrate 54Mbps
param **.mac.basicBitrate 2Mbps
param **.mac.multicastBitrate 2Mbps
param **.mac.controlBitrate 2Mbps
param *.numHosts 4
param *.host[*].mobilityType "\"MassMobility\""
param *.host[*].mobility.constraintAreaMinX 0m
param *.host[*].mobility.constraintAreaMinY 0m
param *.host[*].mobility.constraintAreaMinZ 0m
param *.host[*].mobility.constraintAreaMaxX 60m
param *.host[*].mobility.constraintAreaMaxY 40m
param *.host[*].mobility.constraintAreaMaxZ 0m
param *.host[*].mobility.initFromDisplayString false
param *.host[*].mobility.changeInterval "truncnormal(2s, 0.5s)"
param *.host[*].mobility.changeAngleBy "normal(0deg, 30deg)"
param *.host[*].mobility.speed "truncnormal(20mps, 8mps)"
param *.host[*].mobility.updateInterval 100ms
param *.host[0].numPingApps 0
param *.host[1].numPingApps 1
param *.host[1].pingApp[*].destAddr "\"host[0]\""
param *.host[2].numPingApps 0
param *.host[3].numPingApps 1
param *.host[3].pingApp[*].destAddr "\"host[2]\""
param *.host[*].pingApp[*].printPing true

vector 0 UsingCSMACAwithNoRTS.host[0].wlan[0].radio radioMode:vector ETV
attr interpolationmode sample-hold
attr source radioModeChanged
attr title "Radio mode, vector"
vector 1 UsingCSMACAwithNoRTS.host[0].wlan[0].radio radioChannel:vector ETV
attr interpolationmode sample-hold
attr source radioChannelChanged
attr title "Radio channel, vector"
vector 2 UsingCSMACAwithNoRTS.host[1].wlan[0].radio radioMode:vector ETV
attr interpolationmode sample-hold
attr source radioModeChanged
attr title "Radio mode, vector"
vector 3 UsingCSMACAwithNoRTS.host[1].wlan[0].radio radioChannel:vector ETV
attr interpolationmode sample-hold
attr source radioChannelChanged
attr title "Radio channel, vector"
vector 4 UsingCSMACAwithNoRTS.host[2].wlan[0].radio radioMode:vector ETV
attr interpolationmode sample-hold
attr source radioModeChanged
attr title "Radio mode, vector"
vector 5 UsingCSMACAwithNoRTS.host[2].wlan[0].radio radioChannel:vector ETV
attr interpolationmode sample-hold
attr source radioChannelChanged
attr title "Radio channel, vector"
vector 6 UsingCSMACAwithNoRTS.host[3].wlan[0].radio radioMode:vector ETV
attr interpolationmode sample-hold
attr source radioModeChanged
attr title "Radio mode, vector"
vector 7 UsingCSMACAwithNoRTS.host[3].wlan[0].radio radioChannel:vector ETV
attr interpolationmode sample-hold
attr source radioChannelChanged
attr title "Radio channel, vector"
vector 8 UsingCSMACAwithNoRTS.host[0].wlan[0].radio receptionState:vector ETV
attr interpolationmode sample-hold
attr source receptionStateChanged
attr title "Radio reception state, vector"
vector 9 UsingCSMACAwithNoRTS.host[1].wlan[0].radio receptionState:vector ETV
attr interpolationmode sample-hold
attr source receptionStateChanged
attr title "Radio reception state, vector"
vector 10 UsingCSMACAwithNoRTS.host[2].wlan[0].radio receptionState:vector ETV
attr interpolationmode sample-hold
attr source receptionStateChanged
attr title "Radio reception state, vector"
vector 11 UsingCSMACAwithNoRTS.host[3].wlan[0].radio receptionState:vector ETV
attr interpolationmode sample-hold
attr source receptionStateChanged
attr title "Radio reception state, vector"
vector 12 UsingCSMACAwithNoRTS.host[0].wlan[0].mac.dcf.channelAccess.contention state:vector ETV
attr interpolationmode none
attr source stateChanged
attr title "contention state, vector"
vector 13 UsingCSMACAwithNoRTS.host[0].wlan[0].mac.hcf.edca.edcaf[0].contention state:vector ETV
attr interpolationmode none
attr source stateChanged
attr title "contention state, vector"
vector 14 UsingCSMACAwithNoRTS.host[0].wlan[0].mac.hcf.edca.edcaf[1].contention state:vector ETV
attr interpolationmode none
attr source stateChanged
attr title "contention state, vector"
vector 15 UsingCSMACAwithNoRTS.host[0].wlan[0].mac.hcf.edca.edcaf[2].contention state:vector ETV
attr interpolationmode none
attr source stateChanged
attr title "contention state, vector"
vector 16 UsingCSMACAwithNoRTS.host[0].wlan[0].mac.hcf.edca.edcaf[3].contention state:vector ETV
attr interpolationmode none
attr source stateChanged
attr title "contention state, vector"
vector 17 UsingCSMACAwithNoRTS.host[1].wlan[0].mac.dcf.channelAccess.contention state:vector ETV
attr interpolationmode none
attr source stateChanged
attr title "contention state, vector"
vector 18 UsingCSMACAwithNoRTS.host[1].wlan[0].mac.hcf.edca.edcaf[0].contention state:vector ETV
attr interpolationmode none
attr source stateChanged
attr title "contention state, vector"
vector 19 UsingCSMACAwithNoRTS.host[1].wlan[0].mac.hcf.edca.edcaf[1].contention state:vector ETV
attr interpolationmode none
attr source stateChanged
attr title "contention state, vector"
vector 20 UsingCSMACAwithNoRTS.host[1].wlan[0].mac.hcf.edca.edcaf[2].contention state:vector ETV
attr interpolationmode none
attr source stateChanged
attr title "contention state, vector"
vector 21 UsingCSMACAwithNoRTS.host[1].wlan[0].mac.hcf.edca.edcaf[3].contention state:vector ETV
attr interpolationmode none
attr source stateChanged
attr title "contention state, vector"
vector 22 UsingCSMACAwithNoRTS.host[2].wlan[0].mac.dcf.channelAccess.contention state:vector ETV
attr interpolationmode none
attr source stateChanged
attr title "contention state, vector"
vector 23 UsingCSMACAwithNoRTS.host[2].wlan[0].mac.hcf.edca.edcaf[0].contention state:vector ETV
attr interpolationmode none
attr source stateChanged
attr title "contention state, vector"
vector 24 UsingCSMACAwithNoRTS.host[2].wlan[0].mac.hcf.edca.edcaf[1].contention state:vector ETV
attr interpolationmode none
attr source stateChanged
attr title "contention state, vector"
vector 25 UsingCSMACAwithNoRTS.host[2].wlan[0].mac.hcf.edca.edcaf[2].contention state:vector ETV
attr interpolationmode none
attr source stateChanged
attr title "contention state, vector"
vector 26 UsingCSMACAwithNoRTS.host[2].wlan[0].mac.hcf.edca.edcaf[3].contention state:vector ETV
attr interpolationmode none
attr source stateChanged
attr title "contention state, vector"
vector 27 UsingCSMACAwithNoRTS.host[3].wlan[0].mac.dcf.channelAccess.contention state:vector ETV
attr interpolationmode none
attr source stateChanged
attr title "contention state, vector"
vector 28 UsingCSMACAwithNoRTS.host[3].wlan[0].mac.hcf.edca.edcaf[0].contention state:vector ETV
attr interpolationmode none
attr source stateChanged
attr title "contention state, vector"
vector 29 UsingCSMACAwithNoRTS.host[3].wlan[0].mac.hcf.edca.edcaf[1].contention state:vector ETV
attr interpolationmode none
attr source stateChanged
attr title "contention state, vector"
vector 30 UsingCSMACAwithNoRTS.host[3].wlan[0].mac.hcf.edca.edcaf[2].contention state:vector ETV
attr interpolationmode none
attr source stateChanged
attr title "contention state, vector"
vector 31 UsingCSMACAwithNoRTS.host[3].wlan[0].mac.hcf.edca.edcaf[3].contention state:vector ETV
attr interpolationmode none
attr source stateChanged
attr title "contention state, vector"
vector 32 UsingCSMACAwithNoRTS.host[1].pingApp[0] pingTxSeq:vector ETV
attr interpolationmode none
attr title "ping tx seq, vector"
vector 33 UsingCSMACAwithNoRTS.host[1].networkLayer.arp sentReq:vector ETV
attr title "ARP request sent, vector"
vector 34 UsingCSMACAwithNoRTS.host[1].wlan[0].mac rcvdPkFromHL:vector(packetBytes) ETV
attr interpolationmode none
attr source packetReceivedFromUpper
attr title "packets received from higher layer, vector(packetBytes)"
vector 35 UsingCSMACAwithNoRTS.host[1].wlan[0].mac sentDownPk:vector(packetBytes) ETV
attr interpolationmode none
attr source packetSentToLower
attr title "packets sent to lower layer, vector(packetBytes)"
vector 36 UsingCSMACAwithNoRTS.host[1].wlan[0].radio transmissionState:vector ETV
attr interpolationmode sample-hold
attr source transmissionStateChanged
attr title "Radio transmission state, vector"
vector 37 UsingCSMACAwithNoRTS.host[3].wlan[0].mac rcvdPkFromLL:vector(packetBytes) ETV
attr interpolationmode none
attr source packetReceivedFromLower
attr title "packets received from lower layer, vector(packetBytes)"
vector 38 UsingCSMACAwithNoRTS.host[3].wlan[0].mac passedUpPk:vector(packetBytes) ETV
attr interpolationmode none
attr source packetSentToUpper
attr title "packets passed to higher layer, vector(packetBytes)"
vector 39 UsingCSMACAwithNoRTS.host[2].wlan[0].mac rcvdPkFromLL:vector(packetBytes) ETV
attr interpolationmode none
attr source packetReceivedFromLower
attr title "packets received from lower layer, vector(packetBytes)"
vector 40 UsingCSMACAwithNoRTS.host[2].wlan[0].mac passedUpPk:vector(packetBytes) ETV
attr interpolationmode none
attr source packetSentToUpper
attr title "packets passed to higher layer, vector(packetBytes)"
vector 41 UsingCSMACAwithNoRTS.host[0].wlan[0].mac rcvdPkFromLL:vector(packetBytes) ETV
attr interpolationmode none
attr source packetReceivedFromLower
attr title "packets received from lower layer, vector(packetBytes)"
vector 42 UsingCSMACAwithNoRTS.host[0].wlan[0].mac passedUpPk:vector(packetBytes) ETV
attr interpolationmode none
attr source packetSentToUpper
attr title "packets passed to higher layer, vector(packetBytes)"
vector 43 UsingCSMACAwithNoRTS.host[0].networkLayer.arp sentReply:vector ETV
attr title "ARP replies sent, vector"
vector 44 UsingCSMACAwithNoRTS.host[0].wlan[0].mac rcvdPkFromHL:vector(packetBytes) ETV
attr interpolationmode none
attr source packetReceivedFromUpper
attr title "packets received from higher layer, vector(packetBytes)"
vector 45 UsingCSMACAwithNoRTS.host[0].wlan[0].mac sentDownPk:vector(packetBytes) ETV
attr interpolationmode none
attr source packetSentToLower
attr title "packets sent to lower layer, vector(packetBytes)"
vector 46 UsingCSMACAwithNoRTS.host[0].wlan[0].radio transmissionState:vector ETV
attr interpolationmode sample-hold
attr source transmissionStateChanged
attr title "Radio transmission state, vector"
vector 47 UsingCSMACAwithNoRTS.host[1].wlan[0].mac rcvdPkFromLL:vector(packetBytes) ETV
attr interpolationmode none
attr source packetReceivedFromLower
attr title "packets received from lower layer, vector(packetBytes)"
vector 48 UsingCSMACAwithNoRTS.host[1].wlan[0].mac passedUpPk:vector(packetBytes) ETV
attr interpolationmode none
attr source packetSentToUpper
attr title "packets passed to higher layer, vector(packetBytes)"
vector 49 UsingCSMACAwithNoRTS.host[1].pingApp[0] pingRxSeq:vector ETV
attr interpolationmode none
attr title "ping rx seq, vector"
vector 50 UsingCSMACAwithNoRTS.host[1].pingApp[0] rtt:vector ETV
attr interpolationmode none
attr title "ping round-trip time, vector"
attr unit s
vector 51 UsingCSMACAwithNoRTS.host[3].pingApp[0] pingTxSeq:vector ETV
attr interpolationmode none
attr title "ping tx seq, vector"
vector 52 UsingCSMACAwithNoRTS.host[3].networkLayer.arp sentReq:vector ETV
attr title "ARP request sent, vector"
vector 53 UsingCSMACAwithNoRTS.host[3].wlan[0].mac rcvdPkFromHL:vector(packetBytes) ETV
attr interpolationmode none
attr source packetReceivedFromUpper
attr title "packets received from higher layer, vector(packetBytes)"
vector 54 UsingCSMACAwithNoRTS.host[3].wlan[0].mac sentDownPk:vector(packetBytes) ETV
attr interpolationmode none
attr source packetSentToLower
attr title "packets sent to lower layer, vector(packetBytes)"
vector 55 UsingCSMACAwithNoRTS.host[3].wlan[0].radio transmissionState:vector ETV
attr interpolationmode sample-hold
attr source transmissionStateChanged
attr title "Radio transmission state, vector"
vector 56 UsingCSMACAwithNoRTS.host[2].networkLayer.arp sentReply:vector ETV
attr title "ARP replies sent, vector"
vector 57 UsingCSMACAwithNoRTS.host[2].wlan[0].mac rcvdPkFromHL:vector(packetBytes) ETV
attr interpolationmode none
attr source packetReceivedFromUpper
attr title "packets received from higher layer, vector(packetBytes)"
vector 58 UsingCSMACAwithNoRTS.host[2].wlan[0].mac sentDownPk:vector(packetBytes) ETV
attr interpolationmode none
attr source packetSentToLower
attr title "packets sent to lower layer, vector(packetBytes)"
vector 59 UsingCSMACAwithNoRTS.host[2].wlan[0].radio transmissionState:vector ETV
attr interpolationmode sample-hold
attr source transmissionStateChanged
attr title "Radio transmission state, vector"
vector 60 UsingCSMACAwithNoRTS.host[3].pingApp[0] pingRxSeq:vector ETV
attr interpolationmode none
attr title "ping rx seq, vector"
vector 61 UsingCSMACAwithNoRTS.host[3].pingApp[0] rtt:vector ETV
attr interpolationmode none
attr title "ping round-trip time, vector"
attr unit s
0	0	0	0
0	0	0	2
0	66	0.549311649949	3
0	72	0.549349649949	2
0	125	0.549773945179	3
0	135	0.550021945179	2
0	145	0.550611945179	3
0	151	0.550657945179	2
0	413	1.548869612778	3
0	423	1.549117612778	2
0	433	1.549527612778	3
0	439	1.549573612778	2
0	627	2.548869525493	3
0	635	2.549117525493	2
0	647	2.549647525493	3
0	653	2.549693525493	2
0	842	3.548869593574	3
0	852	3.549117593574	2
0	862	3.549187593574	3
0	868	3.549233593574	2
0	1058	4.548869600066	3
0	1069	4.549117600066	2
0	1079	4.549447600066	3
0	1085	4.549493600066	2
0	1273	5.548869579241	3
0	1283	5.549117579241	2
0	1294	5.549667579241	3
0	1300	5.549713579241	2
0	1489	6.548869542586	3
0	1498	6.549117542586	2
0	1509	6.549567542586	3
0	1515	6.549613542586	2
0	1704	7.548869599143	3
0	1714	7.549117599143	2
0	1724	7.549267599143	3
0	1730	7.549313599143	2
0	1918	8.548869639416	3
0	1928	8.549117639416	2
0	1938	8.549167639416	3
0	1944	8.549213639416	2
0	2134	9.548869614717	3
0	2143	9.549117614717	2
0	2154	9.549507614717	3
0	2160	9.549553614717	2
0	2348	10.548869567595	3
0	2357	10.549117567595	2
0	2368	10.549547567595	3
0	2374	10.549593567595	2
0	2562	11.548869577606	3
0	2571	11.549117577606	2
0	2582	11.549187577606	3
0	2588	11.549233577606	2
0	2778	12.548869606226	3
0	2788	12.549117606226	2
0	2798	12.549167606226	3
0	2804	12.549213606226	2
0	2992	13.548869616325	3
0	3002	13.549117616325	2
0	3012	13.549627616325	3
0	3018	13.549673616325	2
0	3206	14.548869553389	3
0	3215	14.549117553389	2
0	3226	14.549527553389	3
0	3232	14.549573553389	2
0	3421	15.548869660839	3
0	3431	15.549117660839	2
0	3441	15.549167660839	3
0	3447	15.549213660839	2
0	3637	16.548869612987	3
0	3647	16.549117612987	2
0	3657	16.549267612987	3
0	3663	16.549313612987	2
0	3852	17.5488695485	3
0	3861	17.5491175485	2
0	3873	17.5495075485	3
0	3879	17.5495535485	2
0	4066	18.548869521541	3
0	4075	18.549117521541	2
0	4087	18.549367521541	3
0	4093	18.549413521541	2
0	4281	19.548869577156	3
0	4290	19.549117577156	2
0	4301	19.549187577156	3
0	4307	19.549233577156	2
0	4495	20.548869539861	3
0	4503	20.549117539861	2
0	4516	20.549667539861	3
0	4522	20.549713539861	2
0	4710	21.548869568123	3
0	4718	21.549117568123	2
0	4730	21.549387568123	3
0	4736	21.549433568123	2
0	4926	22.548869538291	3
0	4934	22.549117538291	2
0	4946	22.549167538291	3
0	4952	22.549213538291	2
0	5141	23.54886952326	3
0	5149	23.54911752326	2
0	5161	23.54940752326	3
0	5167	23.54945352326	2
0	5358	24.548869564846	3
0	5367	24.549117564846	2
0	5378	24.549387564846	3
0	5384	24.549433564846	2
0	5572	25.54886960903	3
0	5582	25.54911760903	2
0	5592	25.54946760903	3
0	5598	25.54951360903	2
0	5788	26.54886956368	3
0	5796	26.54911756368	2
0	5808	26.54940756368	3
0	5814	26.54945356368	2
0	6002	27.548869505112	3
0	6010	27.549117505112	2
0	6022	27.549447505112	3
0	6028	27.549493505112	2
0	6219	28.548869556399	3
0	6229	28.549117556399	2
0	6239	28.549687556399	3
0	6245	28.549733556399	2
0	6433	29.548869582607	3
0	6442	29.549117582607	2
0	6453	29.549587582607	3
0	6459	29.549633582607	2
0	6647	30.548869626031	3
0	6657	30.549117626031	2
0	6667	30.549267626031	3
0	6673	30.549313626031	2
0	6862	31.54886955889	3
0	6871	31.54911755889	2
0	6882	31.54978755889	3
0	6888	31.54983355889	2
0	7076	32.548869556516	3
0	7085	32.549117556516	2
0	7096	32.549507556516	3
0	7102	32.549553556516	2
0	7291	33.54886959993	3
0	7301	33.54911759993	2
0	7311	33.54948759993	3
0	7317	33.54953359993	2
0	7506	34.548869576499	3
0	7514	34.549117576499	2
0	7526	34.549367576499	3
0	7532	34.549413576499	2
0	7721	35.548869536742	3
0	7729	35.549117536742	2
0	7741	35.549587536742	3
0	7747	35.549633536742	2
0	7936	36.548869517897	3
0	7944	36.549117517897	2
0	7956	36.549367517897	3
0	7962	36.549413517897	2
0	8151	37.548869628352	3
0	8160	37.549117628352	2
0	8171	37.549787628352	3
0	8177	37.549833628352	2
0	8365	38.548869579435	3
0	8374	38.549117579435	2
0	8385	38.549667579435	3
0	8391	38.549713579435	2
0	8579	39.548869591906	3
0	8587	39.549117591906	2
0	8599	39.549767591906	3
0	8605	39.549813591906	2
0	8795	40.548869561808	3
0	8804	40.549117561808	2
0	8815	40.549447561808	3
0	8821	40.549493561808	2
0	9011	41.548869600527	3
0	9020	41.549117600527	2
0	9031	41.549527600527	3
0	9037	41.549573600527	2
1	0	0	0
2	0	0	0
2	0	0	2
2	38	0.548813502304	3
2	44	0.549261502304	2
2	85	0.549359797573	3
2	94	0.549607797573	2
2	105	0.549717797573	3
2	111	0.549763797573	2
2	163	0.550668092747	3
2	172	0.550916092747	2
2	393	1.548813502304	3
2	399	1.548859502304	2
2	451	1.549583723231	3
2	459	1.549831723231	2
2	607	2.548813502304	3
2	613	2.548859502304	2
2	665	2.549703548546	3
2	673	2.549951548546	2
2	822	3.548813502304	3
2	828	3.548859502304	2
2	880	3.549243684848	3
2	889	3.549491684848	2
2	1038	4.548813502304	3
2	1044	4.548859502304	2
2	1097	4.549503697809	3
2	1106	4.549751697809	2
2	1253	5.548813502304	3
2	1259	5.548859502304	2
2	1312	5.549723656138	3
2	1321	5.549971656138	2
2	1469	6.548813502304	3
2	1475	6.548859502304	2
2	1527	6.54962358286	3
2	1535	6.54987158286	2
2	1684	7.548813502304	3
2	1690	7.548859502304	2
2	1742	7.549323696	3
2	1752	7.549571696	2
2	1898	8.548813502304	3
2	1904	8.548859502304	2
2	1956	8.549223776543	3
2	1965	8.549471776543	2
2	2114	9.548813502304	3
2	2120	9.548859502304	2
2	2172	9.549563727094	3
2	2181	9.549811727094	2
2	2328	10.548813502304	3
2	2334	10.548859502304	2
2	2386	10.549603632855	3
2	2394	10.549851632855	2
2	2542	11.548813502304	3
2	2548	11.548859502304	2
2	2600	11.549243652928	3
2	2608	11.549491652928	2
2	2758	12.548813502304	3
2	2764	12.548859502304	2
2	2816	12.549223710169	3
2	2826	12.549471710169	2
2	2972	13.548813502304	3
2	2978	13.548859502304	2
2	3030	13.549683730371	3
2	3039	13.549931730371	2
2	3186	14.548813502304	3
2	3192	14.548859502304	2
2	3244	14.549583604582	3
2	3253	14.549831604582	2
2	3401	15.548813502304	3
2	3407	15.548859502304	2
2	3459	15.549223819395	3
2	3469	15.549471819395	2
2	3617	16.548813502304	3
2	3623	16.548859502304	2
2	3675	16.549323723622	3
2	3684	16.549571723622	2
2	3832	17.548813502304	3
2	3838	17.548859502304	2
2	3891	17.549563594651	3
2	3900	17.549811594651	2
2	4046	18.548813502304	3
2	4052	18.548859502304	2
2	4105	18.549423540814	3
2	4114	18.549671540814	2
2	4261	19.548813502304	3
2	4267	19.548859502304	2
2	4319	19.549243651996	3
2	4328	19.549491651996	2
2	4475	20.548813502304	3
2	4481	20.548859502304	2
2	4534	20.54972357733	3
2	4542	20.54997157733	2
2	4690	21.548813502304	3
2	4696	21.548859502304	2
2	4748	21.549443634001	3
2	4758	21.549691634001	2
2	4906	22.548813502304	3
2	4912	22.548859502304	2
2	4964	22.54922357426	3
2	4972	22.54947157426	2
2	5121	23.548813502304	3
2	5127	23.548859502304	2
2	5179	23.549463544244	3
2	5187	23.549711544244	2
2	5338	24.548813502304	3
2	5344	24.548859502304	2
2	5396	24.549443627421	3
2	5406	24.549691627421	2
2	5552	25.548813502304	3
2	5558	25.548859502304	2
2	5610	25.549523715728	3
2	5620	25.549771715728	2
2	5768	26.548813502304	3
2	5774	26.548859502304	2
2	5826	26.549463625023	3
2	5834	26.549711625023	2
2	5982	27.548813502304	3
2	5988	27.548859502304	2
2	6040	27.549503507952	3
2	6048	27.549751507952	2
2	6199	28.548813502304	3
2	6205	28.548859502304	2
2	6257	28.549743610566	3
2	6267	28.549991610566	2
2	6413	29.548813502304	3
2	6419	29.548859502304	2
2	6471	29.549643662995	3
2	6481	29.549891662995	2
2	6627	30.548813502304	3
2	6633	30.548859502304	2
2	6685	30.549323749763	3
2	6695	30.549571749763	2
2	6842	31.548813502304	3
2	6848	31.548859502304	2
2	6900	31.549843615339	3
2	6908	31.550091615339	2
2	7056	32.548813502304	3
2	7062	32.548859502304	2
2	7114	32.549563610781	3
2	7123	32.549811610781	2
2	7271	33.548813502304	3
2	7277	33.548859502304	2
2	7329	33.549543697506	3
2	7339	33.549791697506	2
2	7486	34.548813502304	3
2	7492	34.548859502304	2
2	7544	34.549423650746	3
2	7553	34.549671650746	2
2	7701	35.548813502304	3
2	7707	35.548859502304	2
2	7759	35.54964357114	3
2	7767	35.54989157114	2
2	7916	36.548813502304	3
2	7922	36.548859502304	2
2	7974	36.549423533532	3
2	7983	36.549671533532	2
2	8131	37.548813502304	3
2	8137	37.548859502304	2
2	8189	37.549843754522	3
2	8199	37.550091754522	2
2	8345	38.548813502304	3
2	8351	38.548859502304	2
2	8403	38.549723656477	3
2	8413	38.549971656477	2
2	8559	39.548813502304	3
2	8565	39.548859502304	2
2	8617	39.549823681413	3
2	8627	39.550071681413	2
2	8775	40.548813502304	3
2	8781	40.548859502304	2
2	8833	40.549503621339	3
2	8842	40.549751621339	2
2	8991	41.548813502304	3
2	8997	41.548859502304	2
3	0	0	0
4	0	0	0
4	0	0	2
4	224	0.593482635426	3
4	230	0.593520635426	2
4	283	0.594064673621	3
4	291	0.594312673621	2
4	303	0.594742673621	3
4	309	0.594788673621	2
4	500	1.592900703099	3
4	509	1.593148703099	2
4	520	1.593658703099	3
4	526	1.593704703099	2
4	717	2.592900747229	3
4	727	2.593148747229	2
4	737	2.593438747229	3
4	743	2.593484747229	2
4	932	3.592900741561	3
4	941	3.593148741561	2
4	952	3.593338741561	3
4	958	3.593384741561	2
4	1147	4.592900709241	3
4	1157	4.593148709241	2
4	1167	4.593538709241	3
4	1173	4.593584709241	2
4	1361	5.592900767349	3
4	1371	5.593148767349	2
4	1381	5.593358767349	3
4	1387	5.593404767349	2
4	1578	6.592900720392	3
4	1588	6.593148720392	2
4	1598	6.593518720392	3
4	1604	6.593564720392	2
4	1792	7.592900660166	3
4	1800	7.593148660166	2
4	1812	7.593498660166	3
4	1818	7.593544660166	2
4	2006	8.592900775996	3
4	2016	8.593148775996	2
4	2026	8.593258775996	3
4	2032	8.593304775996	2
4	2221	9.592900760982	3
4	2232	9.593148760982	2
4	2242	9.593778760982	3
4	2248	9.593824760982	2
4	2435	10.592900716705	3
4	2445	10.593148716705	2
4	2456	10.593338716705	3
4	2462	10.593384716705	2
4	2649	11.592900687164	3
4	2658	11.593148687164	2
4	2670	11.593698687164	3
4	2676	11.593744687164	2
4	2866	12.592900634236	3
4	2874	12.593148634236	2
4	2886	12.593398634236	3
4	2892	12.593444634236	2
4	3081	13.592900673786	3
4	3090	13.593148673786	2
4	3101	13.593798673786	3
4	3107	13.593844673786	2
4	3296	14.592900717806	3
4	3305	14.593148717806	2
4	3316	14.593758717806	3
4	3322	14.593804717806	2
4	3510	15.592900721185	3
4	3519	15.593148721185	2
4	3530	15.593278721185	3
4	3536	15.593324721185	2
4	3725	16.59290070976	3
4	3735	16.59314870976	2
4	3745	16.59335870976	3
4	3751	16.59340470976	2
4	3940	17.592900712546	3
4	3950	17.593148712546	2
4	3960	17.593278712546	3
4	3966	17.593324712546	2
4	4154	18.592900663506	3
4	4164	18.593148663506	2
4	4174	18.593818663506	3
4	4180	18.593864663506	2
4	4370	19.592900699967	3
4	4380	19.593148699967	2
4	4390	19.593338699967	3
4	4396	19.593384699967	2
4	4585	20.592900736382	3
4	4595	20.593148736382	2
4	4605	20.593318736382	3
4	4611	20.593364736382	2
4	4800	21.592900715801	3
4	4810	21.593148715801	2
4	4820	21.593558715801	3
4	4826	21.593604715801	2
4	5015	22.592900714341	3
4	5025	22.593148714341	2
4	5036	22.593258714341	3
4	5042	22.593304714341	2
4	5230	23.592900742197	3
4	5240	23.593148742197	2
4	5251	23.593398742197	3
4	5257	23.593444742197	2
4	5446	24.592900701167	3
4	5456	24.593148701167	2
4	5466	24.593318701167	3
4	5472	24.593364701167	2
4	5660	25.592900678919	3
4	5669	25.593148678919	2
4	5680	25.593598678919	3
4	5686	25.593644678919	2
4	5877	26.592900670148	3
4	5885	26.593148670148	2
4	5897	26.593598670148	3
4	5903	26.593644670148	2
4	6091	27.592900705229	3
4	6099	27.593148705229	2
4	6111	27.593598705229	3
4	6117	27.593644705229	2
4	6306	28.592900632584	3
4	6315	28.593148632584	2
4	6326	28.593498632584	3
4	6332	28.593544632584	2
4	6521	29.592900722883	3
4	6531	29.593148722883	2
4	6541	29.593518722883	3
4	6547	29.593564722883	2
4	6736	30.592900701315	3
4	6745	30.593148701315	2
4	6756	30.593258701315	3
4	6762	30.593304701315	2
4	6951	31.592900756278	3
4	6961	31.593148756278	2
4	6971	31.593798756278	3
4	6977	31.593844756278	2
4	7165	32.592900715024	3
4	7175	32.593148715024	2
4	7186	32.593278715024	3
4	7192	32.593324715024	2
4	7380	33.592900680132	3
4	7389	33.593148680132	2
4	7400	33.593258680132	3
4	7406	33.593304680132	2
4	7594	34.592900693179	3
4	7602	34.593148693179	2
4	7614	34.593518693179	3
4	7620	34.593564693179	2
4	7808	35.592900752194	3
4	7816	35.593148752194	2
4	7830	35.593818752194	3
4	7836	35.593864752194	2
4	8023	36.592900768781	3
4	8033	36.593148768781	2
4	8043	36.593418768781	3
4	8049	36.593464768781	2
4	8239	37.592900759101	3
4	8249	37.593148759101	2
4	8259	37.593738759101	3
4	8265	37.593784759101	2
4	8453	38.592900721221	3
4	8463	38.593148721221	2
4	8473	38.593798721221	3
4	8479	38.593844721221	2
4	8668	39.592900688327	3
4	8677	39.593148688327	2
4	8688	39.593258688327	3
4	8694	39.593304688327	2
4	8884	40.592900709744	3
4	8894	40.593148709744	2
4	8904	40.593598709744	3
4	8910	40.593644709744	2
5	0	0	0
6	0	0	0
6	0	0	2
6	196	0.592844616389	3
6	202	0.593292616389	2
6	243	0.593530654506	3
6	251	0.593778654506	2
6	263	0.594008654506	3
6	269	0.594054654506	2
6	321	0.594798692785	3
6	329	0.595046692785	2
6	480	1.592844616389	3
6	486	1.592890616389	2
6	538	1.593714789864	3
6	547	1.593962789864	2
6	697	2.592844616389	3
6	703	2.592890616389	2
6	755	2.593494878119	3
6	765	2.593742878119	2
6	912	3.592844616389	3
6	918	3.592890616389	2
6	970	3.593394866681	3
6	980	3.593642866681	2
6	1127	4.592844616389	3
6	1133	4.592890616389	2
6	1185	4.593594802124	3
6	1194	4.593842802124	2
6	1341	5.592844616389	3
6	1347	5.592890616389	2
6	1399	5.593414918345	3
6	1408	5.593662918345	2
6	1558	6.592844616389	3
6	1564	6.592890616389	2
6	1616	6.593574824287	3
6	1624	6.593822824287	2
6	1772	7.592844616389	3
6	1778	7.592890616389	2
6	1830	7.593554704021	3
6	1838	7.593802704021	2
6	1986	8.592844616389	3
6	1992	8.592890616389	2
6	2044	8.593314935626	3
6	2053	8.593562935626	2
6	2201	9.592844616389	3
6	2207	9.592890616389	2
6	2260	9.593834905477	3
6	2270	9.594082905477	2
6	2415	10.592844616389	3
6	2421	10.592890616389	2
6	2474	10.593394817006	3
6	2484	10.593642817006	2
6	2629	11.592844616389	3
6	2635	11.592890616389	2
6	2688	11.593754757915	3
6	2697	11.594002757915	2
6	2846	12.592844616389	3
6	2852	12.592890616389	2
6	2904	12.593454652047	3
6	2912	12.593702652047	2
6	3061	13.592844616389	3
6	3067	13.592890616389	2
6	3119	13.593854731227	3
6	3128	13.594102731227	2
6	3276	14.592844616389	3
6	3282	14.592890616389	2
6	3334	14.593814819263	3
6	3344	14.594062819263	2
6	3490	15.592844616389	3
6	3496	15.592890616389	2
6	3548	15.593334825983	3
6	3557	15.593582825983	2
6	3705	16.592844616389	3
6	3711	16.592890616389	2
6	3763	16.593414803126	3
6	3772	16.593662803126	2
6	3920	17.592844616389	3
6	3926	17.592890616389	2
6	3978	17.593334808663	3
6	3987	17.593582808663	2
6	4134	18.592844616389	3
6	4140	18.592890616389	2
6	4192	18.593874710661	3
6	4200	18.594122710661	2
6	4350	19.592844616389	3
6	4356	19.592890616389	2
6	4408	19.593394783564	3
6	4416	19.593642783564	2
6	4565	20.592844616389	3
6	4571	20.592890616389	2
6	4623	20.593374856363	3
6	4633	20.593622856363	2
6	4780	21.592844616389	3
6	4786	21.592890616389	2
6	4838	21.593614815194	3
6	4846	21.593862815194	2
6	4995	22.592844616389	3
6	5001	22.592890616389	2
6	5054	22.593314812304	3
6	5062	22.593562812304	2
6	5210	23.592844616389	3
6	5216	23.592890616389	2
6	5269	23.593454868005	3
6	5279	23.593702868005	2
6	5426	24.592844616389	3
6	5432	24.592890616389	2
6	5484	24.593374785928	3
6	5494	24.593622785928	2
6	5640	25.592844616389	3
6	5646	25.592890616389	2
6	5698	25.593654741446	3
6	5706	25.593902741446	2
6	5857	26.592844616389	3
6	5863	26.592890616389	2
6	5915	26.593654723894	3
6	5923	26.593902723894	2
6	6071	27.592844616389	3
6	6077	27.592890616389	2
6	6129	27.593654794104	3
6	6137	27.593902794104	2
6	6286	28.592844616389	3
6	6292	28.592890616389	2
6	6344	28.593554648903	3
6	6353	28.593802648903	2
6	6501	29.592844616389	3
6	6507	29.592890616389	2
6	6559	29.593574829374	3
6	6568	29.593822829374	2
6	6716	30.592844616389	3
6	6722	30.592890616389	2
6	6774	30.593314786268	3
6	6783	30.593562786268	2
6	6931	31.592844616389	3
6	6937	31.592890616389	2
6	6989	31.593854896198	3
6	6999	31.594102896198	2
6	7145	32.592844616389	3
6	7151	32.592890616389	2
6	7204	32.593334813619	3
6	7214	32.593582813619	2
6	7360	33.592844616389	3
6	7366	33.592890616389	2
6	7418	33.59331474385	3
6	7426	33.59356274385	2
6	7574	34.592844616389	3
6	7580	34.592890616389	2
6	7632	34.593574770025	3
6	7642	34.593822770025	2
6	7788	35.592844616389	3
6	7794	35.592890616389	2
6	7848	35.593874888052	3
6	7858	35.594122888052	2
6	8003	36.592844616389	3
6	8009	36.592890616389	2
6	8061	36.593474921232	3
6	8072	36.593722921232	2
6	8219	37.592844616389	3
6	8225	37.592890616389	2
6	8277	37.593794901789	3
6	8286	37.594042901789	2
6	8433	38.592844616389	3
6	8439	38.592890616389	2
6	8491	38.593854826038	3
6	8500	38.594102826038	2
6	8648	39.592844616389	3
6	8654	39.592890616389	2
6	8706	39.593314760278	3
6	8715	39.593562760278	2
6	8864	40.592844616389	3
6	8870	40.592890616389	2
6	8922	40.593654803071	3
6	8930	40.593902803071	2
7	0	0	0
8	0	0	1
8	42	0.548813649949	3
8	55	0.549261649949	1
8	66	0.549311649949	0
8	72	0.549349649949	1
8	89	0.549359945195	3
8	100	0.549607945195	1
8	109	0.549717945179	3
8	116	0.549763945179	1
8	125	0.549773945179	0
8	135	0.550021945179	1
8	145	0.550611945179	0
8	151	0.550657945179	1
8	167	0.550668240312	3
8	178	0.550916240312	1
8	200	0.592844768826	3
8	216	0.593292768826	1
8	228	0.593482769179	3
8	240	0.593520769179	1
8	247	0.593530807017	3
8	258	0.593778807017	1
8	267	0.594008807069	3
8	280	0.594054807069	1
8	287	0.594064807401	3
8	298	0.594312807401	1
8	307	0.594742807433	3
8	318	0.594788807433	1
8	325	0.594798845434	3
8	336	0.595046845434	1
8	397	1.548813612778	3
8	404	1.548859612778	1
8	413	1.548869612778	0
8	423	1.549117612778	1
8	433	1.549527612778	0
8	439	1.549573612778	1
8	455	1.549583833683	3
8	466	1.549831833683	1
8	484	1.592844783632	3
8	497	1.592890783632	1
8	504	1.59290086781	3
8	515	1.59314886781	1
8	524	1.593658867822	3
8	535	1.593704867822	1
8	542	1.593714957121	3
8	553	1.593962957121	1
8	609	2.548813525493	3
8	614	2.548859525493	1
8	627	2.548869525493	0
8	635	2.549117525493	1
8	647	2.549647525493	0
8	653	2.549693525493	1
8	667	2.549703571589	3
8	674	2.549951571589	1
8	700	2.592844735941	3
8	706	2.592890735941	1
8	720	2.592900869759	3
8	730	2.593148869759	1
8	740	2.593438869697	3
8	746	2.593484869697	1
8	758	2.593494997653	3
8	768	2.593742997653	1
8	826	3.548813593574	3
8	833	3.548859593574	1
8	842	3.548869593574	0
8	852	3.549117593574	1
8	862	3.549187593574	0
8	868	3.549233593574	1
8	884	3.549243776123	3
8	895	3.549491776123	1
8	916	3.592844742567	3
8	929	3.592890742567	1
8	934	3.592900755174	3
8	943	3.593148755174	1
8	954	3.593338755226	3
8	959	3.593384755226	1
8	974	3.593394992839	3
8	985	3.593642992839	1
8	1042	4.548813600066	3
8	1049	4.548859600066	1
8	1058	4.548869600066	0
8	1069	4.549117600066	1
8	1079	4.549447600066	0
8	1085	4.549493600066	1
8	1101	4.54950379555	3
8	1112	4.54975179555	1
8	1130	4.592844697594	3
8	1136	4.592890697594	1
8	1151	4.592900837219	3
8	1162	4.593148837219	1
8	1171	4.593538837249	3
8	1182	4.593584837249	1
8	1188	4.59359488327	3
8	1198	4.59384288327	1
8	1256	5.548813579241	3
8	1262	5.548859579241	1
8	1273	5.548869579241	0
8	1283	5.549117579241	1
8	1294	5.549667579241	0
8	1300	5.549713579241	1
8	1315	5.549723733032	3
8	1324	5.549971733032	1
8	1343	5.592844635583	3
8	1348	5.592890635583	1
8	1365	5.592900937295	3
8	1376	5.593148937295	1
8	1385	5.593358937296	3
8	1396	5.593404937296	1
8	1401	5.593414937506	3
8	1410	5.593662937506	1
8	1472	6.548813542586	3
8	1478	6.548859542586	1
8	1489	6.548869542586	0
8	1498	6.549117542586	1
8	1509	6.549567542586	0
8	1515	6.549613542586	1
8	1530	6.549623623133	3
8	1539	6.549871623133	1
8	1561	6.592844675405	3
8	1567	6.592890675405	1
8	1582	6.592900843822	3
8	1593	6.593148843822	1
8	1602	6.593518843714	3
8	1613	6.593564843714	1
8	1619	6.59357488329	3
8	1629	6.59382288329	1
8	1688	7.548813599143	3
8	1695	7.548859599143	1
8	1704	7.548869599143	0
8	1714	7.549117599143	1
8	1724	7.549267599143	0
8	1730	7.549313599143	1
8	1746	7.549323792859	3
8	1757	7.549571792859	1
8	1775	7.59284466762	3
8	1787	7.59289066762	1
8	1796	7.592900747843	3
8	1807	7.593148747843	1
8	1816	7.593498747922	3
8	1827	7.593544747922	1
8	1833	7.593554755254	3
8	1843	7.593802755254	1
8	1902	8.548813639416	3
8	1909	8.548859639416	1
8	1918	8.548869639416	0
8	1928	8.549117639416	1
8	1938	8.549167639416	0
8	1944	8.549213639416	1
8	1960	8.549223913672	3
8	1971	8.549471913672	1
8	1988	8.592844661951	3
8	1993	8.592890661951	1
8	2010	8.592900980945	3
8	2021	8.593148980945	1
8	2030	8.593258980961	3
8	2041	8.593304980961	1
8	2046	8.593314981181	3
8	2055	8.593562981181	1
8	2117	9.548813614717	3
8	2123	9.548859614717	1
8	2134	9.548869614717	0
8	2143	9.549117614717	1
8	2154	9.549507614717	0
8	2160	9.549553614717	1
8	2175	9.549563839468	3
8	2185	9.549811839468	1
8	2203	9.592844651107	3
8	2208	9.592890651107	1
8	2224	9.592900884076	3
8	2235	9.593148884076	1
8	2245	9.593778884019	3
8	2251	9.593824884019	1
8	2262	9.593834940194	3
8	2271	9.594082940194	1
8	2331	10.548813567595	3
8	2337	10.548859567595	1
8	2348	10.548869567595	0
8	2357	10.549117567595	1
8	2368	10.549547567595	0
8	2374	10.549593567595	1
8	2389	10.549603698113	3
8	2399	10.549851698113	1
8	2417	10.592844692516	3
8	2422	10.592890692516	1
8	2438	10.592900807589	3
8	2449	10.593148807589	1
8	2459	10.593338807588	3
8	2465	10.593384807588	1
8	2476	10.593394893162	3
8	2485	10.593642893162	1
8	2545	11.548813577606	3
8	2551	11.548859577606	1
8	2562	11.548869577606	0
8	2571	11.549117577606	1
8	2582	11.549187577606	0
8	2588	11.549233577606	1
8	2603	11.549243728253	3
8	2613	11.549491728253	1
8	2633	11.59284474181	3
8	2646	11.59289074181	1
8	2653	11.59290080418	3
8	2665	11.59314880418	1
8	2674	11.593698804135	3
8	2685	11.593744804135	1
8	2692	11.593754883254	3
8	2703	11.594002883254	1
8	2762	12.548813606226	3
8	2769	12.548859606226	1
8	2778	12.548869606226	0
8	2788	12.549117606226	1
8	2798	12.549167606226	0
8	2804	12.549213606226	1
8	2820	12.549223814115	3
8	2831	12.549471814115	1
8	2850	12.592844691702	3
8	2863	12.592890691702	1
8	2870	12.592900726926	3
8	2881	12.593148726926	1
8	2890	12.593398726922	3
8	2901	12.593444726922	1
8	2908	12.593454727407	3
8	2919	12.593702727407	1
8	2976	13.548813616325	3
8	2983	13.548859616325	1
8	2992	13.548869616325	0
8	3002	13.549117616325	1
8	3012	13.549627616325	0
8	3018	13.549673616325	1
8	3034	13.549683844419	3
8	3045	13.549931844419	1
8	3065	13.592844778253	3
8	3078	13.592890778253	1
8	3085	13.592900779164	3
8	3096	13.593148779164	1
8	3105	13.593798779033	3
8	3116	13.593844779033	1
8	3123	13.593854892988	3
8	3134	13.594102892988	1
8	3189	14.548813553389	3
8	3195	14.548859553389	1
8	3206	14.548869553389	0
8	3215	14.549117553389	1
8	3226	14.549527553389	0
8	3232	14.549573553389	1
8	3247	14.549583655784	3
8	3257	14.549831655784	1
8	3278	14.59284470493	3
8	3283	14.59289070493	1
8	3299	14.592900764738	3
8	3309	14.593148764738	1
8	3319	14.593758764855	3
8	3325	14.593804764855	1
8	3336	14.59381490779	3
8	3345	14.59406290779	1
8	3405	15.548813660839	3
8	3412	15.548859660839	1
8	3421	15.548869660839	0
8	3431	15.549117660839	1
8	3441	15.549167660839	0
8	3447	15.549213660839	1
8	3463	15.549223977955	3
8	3474	15.549471977955	1
8	3492	15.592844711074	3
8	3497	15.592890711074	1
8	3514	15.592900858691	3
8	3525	15.593148858691	1
8	3534	15.593278858716	3
8	3545	15.593324858716	1
8	3550	15.593334920685	3
8	3559	15.593582920685	1
8	3621	16.548813612987	3
8	3628	16.548859612987	1
8	3637	16.548869612987	0
8	3647	16.549117612987	1
8	3657	16.549267612987	0
8	3663	16.549313612987	1
8	3679	16.549323834251	3
8	3690	16.549571834251	1
8	3707	16.592844693983	3
8	3712	16.592890693983	1
8	3729	16.592900856055	3
8	3740	16.593148856055	1
8	3749	16.593358856053	3
8	3760	16.593404856053	1
8	3765	16.593414880687	3
8	3774	16.593662880687	1
8	3835	17.5488135485	3
8	3841	17.5488595485	1
8	3852	17.5488695485	0
8	3861	17.5491175485	1
8	3873	17.5495075485	0
8	3879	17.5495535485	1
8	3894	17.549563640798	3
8	3903	17.549811640798	1
8	3923	17.592844651015	3
8	3929	17.592890651015	1
8	3944	17.592900842571	3
8	3955	17.593148842571	1
8	3964	17.593278842515	3
8	3975	17.593324842515	1
8	3981	17.593334843264	3
8	3991	17.593582843264	1
8	4049	18.548813521541	3
8	4055	18.548859521541	1
8	4066	18.548869521541	0
8	4075	18.549117521541	1
8	4087	18.549367521541	0
8	4093	18.549413521541	1
8	4108	18.549423560091	3
8	4117	18.549671560091	1
8	4137	18.592844633264	3
8	4143	18.592890633264	1
8	4157	18.592900714248	3
8	4167	18.593148714248	1
8	4177	18.593818714332	3
8	4187	18.593864714332	1
8	4195	18.593874727589	3
8	4205	18.594122727589	1
8	4264	19.548813577156	3
8	4270	19.548859577156	1
8	4281	19.548869577156	0
8	4290	19.549117577156	1
8	4301	19.549187577156	0
8	4307	19.549233577156	1
8	4322	19.549243726834	3
8	4332	19.549491726834	1
8	4352	19.592844663247	3
8	4357	19.592890663247	1
8	4374	19.592900830385	3
8	4385	19.593148830385	1
8	4394	19.593338830378	3
8	4405	19.593384830378	1
8	4410	19.593394830391	3
8	4419	19.593642830391	1
8	4477	20.548813539861	3
8	4482	20.548859539861	1
8	4495	20.548869539861	0
8	4503	20.549117539861	1
8	4516	20.549667539861	0
8	4522	20.549713539861	1
8	4536	20.549723614793	3
8	4544	20.549971614793	1
8	4567	20.592844666622	3
8	4572	20.592890666622	1
8	4588	20.592900853094	3
8	4598	20.593148853094	1
8	4608	20.593318853089	3
8	4614	20.593364853089	1
8	4625	20.593374906598	3
8	4634	20.593622906598	1
8	4692	21.548813568123	3
8	4697	21.548859568123	1
8	4710	21.548869568123	0
8	4718	21.549117568123	1
8	4730	21.549387568123	0
8	4736	21.549433568123	1
8	4750	21.549443699885	3
8	4760	21.549691699885	1
8	4782	21.592844678121	3
8	4787	21.592890678121	1
8	4803	21.592900823888	3
8	4813	21.593148823888	1
8	4823	21.593558823882	3
8	4833	21.593604823882	1
8	4840	21.593614876939	3
8	4848	21.593862876939	1
8	4908	22.548813538291	3
8	4913	22.548859538291	1
8	4926	22.548869538291	0
8	4934	22.549117538291	1
8	4946	22.549167538291	0
8	4952	22.549213538291	1
8	4966	22.549223610226	3
8	4973	22.549471610226	1
8	4997	22.592844706431	3
8	5002	22.592890706431	1
8	5018	22.592900819552	3
8	5028	22.593148819552	1
8	5039	22.593258819554	3
8	5049	22.593304819554	1
8	5056	22.593314902365	3
8	5065	22.593562902365	1
8	5123	23.54881352326	3
8	5128	23.54885952326	1
8	5141	23.54886952326	0
8	5149	23.54911752326	1
8	5161	23.54940752326	0
8	5167	23.54945352326	1
8	5181	23.54946356523	3
8	5188	23.54971156523	1
8	5213	23.592844736362	3
8	5219	23.592890736362	1
8	5233	23.592900816633	3
8	5243	23.593148816633	1
8	5254	23.593398816623	3
8	5260	23.593444816623	1
8	5272	23.593454987963	3
8	5282	23.593702987963	1
8	5341	24.548813564846	3
8	5347	24.548859564846	1
8	5358	24.548869564846	0
8	5367	24.549117564846	1
8	5378	24.549387564846	0
8	5384	24.549433564846	1
8	5399	24.549443689999	3
8	5409	24.549691689999	1
8	5428	24.592844658408	3
8	5433	24.592890658408	1
8	5449	24.592900753819	3
8	5459	24.593148753819	1
8	5469	24.593318753834	3
8	5475	24.593364753834	1
8	5486	24.593374827898	3
8	5495	24.593622827898	1
8	5556	25.54881360903	3
8	5563	25.54885960903	1
8	5572	25.54886960903	0
8	5582	25.54911760903	1
8	5592	25.54946760903	0
8	5598	25.54951360903	1
8	5614	25.549523822424	3
8	5625	25.549771822424	1
8	5642	25.592844651266	3
8	5647	25.592890651266	1
8	5664	25.59290077408	3
8	5675	25.59314877408	1
8	5684	25.593598774035	3
8	5695	25.593644774035	1
8	5700	25.593654776277	3
8	5709	25.593902776277	1
8	5770	26.54881356368	3
8	5775	26.54885956368	1
8	5788	26.54886956368	0
8	5796	26.54911756368	1
8	5808	26.54940756368	0
8	5814	26.54945356368	1
8	5828	26.549463686362	3
8	5837	26.549711686362	1
8	5860	26.592844685844	3
8	5872	26.592890685844	1
8	5880	26.592900776708	3
8	5890	26.593148776708	1
8	5900	26.593598776696	3
8	5910	26.593644776696	1
8	5918	26.59365479342	3
8	5927	26.59390279342	1
8	5984	27.548813505112	3
8	5989	27.548859505112	1
8	6002	27.548869505112	0
8	6010	27.549117505112	1
8	6022	27.549447505112	0
8	6028	27.549493505112	1
8	6042	27.549503510795	3
8	6049	27.549751510795	1
8	6075	27.592844727795	3
8	6088	27.592890727795	1
8	6095	27.592900796218	3
8	6106	27.593148796218	1
8	6115	27.593598796175	3
8	6126	27.593644796175	1
8	6133	27.593654905437	3
8	6144	27.593902905437	1
8	6203	28.548813556399	3
8	6210	28.548859556399	1
8	6219	28.548869556399	0
8	6229	28.549117556399	1
8	6239	28.549687556399	0
8	6245	28.549733556399	1
8	6261	28.549743664738	3
8	6272	28.549991664738	1
8	6288	28.592844631629	3
8	6293	28.592890631629	1
8	6308	28.592900643432	3
8	6316	28.593148643432	1
8	6328	28.593498643526	3
8	6333	28.593544643526	1
8	6346	28.593554664232	3
8	6354	28.593802664232	1
8	6416	29.548813582607	3
8	6422	29.548859582607	1
8	6433	29.548869582607	0
8	6442	29.549117582607	1
8	6453	29.549587582607	0
8	6459	29.549633582607	1
8	6474	29.549643743389	3
8	6484	29.549891743389	1
8	6504	29.592844690569	3
8	6510	29.592890690569	1
8	6523	29.592900758975	3
8	6532	29.593148758975	1
8	6543	29.59351875898	3
8	6548	29.59356475898	1
8	6562	29.593574903568	3
8	6572	29.593822903568	1
8	6631	30.548813626031	3
8	6638	30.548859626031	1
8	6647	30.548869626031	0
8	6657	30.549117626031	1
8	6667	30.549267626031	0
8	6673	30.549313626031	1
8	6689	30.549323873496	3
8	6700	30.549571873496	1
8	6720	30.592844723589	3
8	6733	30.592890723589	1
8	6738	30.592900738931	3
8	6747	30.593148738931	1
8	6758	30.593258738953	3
8	6763	30.593304738953	1
8	6778	30.593314893491	3
8	6789	30.593562893491	1
8	6845	31.54881355889	3
8	6851	31.54885955889	1
8	6862	31.54886955889	0
8	6871	31.54911755889	1
8	6882	31.54978755889	0
8	6888	31.54983355889	1
8	6903	31.54984367178	3
8	6913	31.55009167178	1
8	6934	31.592844682771	3
8	6940	31.592890682771	1
8	6953	31.592900840666	3
8	6962	31.593148840666	1
8	6973	31.593798840742	3
8	6978	31.593844840742	1
8	6992	31.593854962473	3
8	7002	31.594102962473	1
8	7059	32.548813556516	3
8	7065	32.548859556516	1
8	7076	32.548869556516	0
8	7085	32.549117556516	1
8	7096	32.549507556516	0
8	7102	32.549553556516	1
8	7117	32.54956366505	3
8	7127	32.54981166505	1
8	7147	32.592844639608	3
8	7152	32.592890639608	1
8	7168	32.592900811695	3
8	7178	32.593148811695	1
8	7189	32.593278811675	3
8	7195	32.593324811675	1
8	7206	32.593334836848	3
8	7215	32.593582836848	1
8	7275	33.54881359993	3
8	7282	33.54885959993	1
8	7291	33.54886959993	0
8	7301	33.54911759993	1
8	7311	33.54948759993	0
8	7317	33.54953359993	1
8	7333	33.549543795077	3
8	7344	33.549791795077	1
8	7364	33.59284468507	3
8	7377	33.59289068507	1
8	7384	33.59290076598	3
8	7395	33.59314876598	1
8	7404	33.59325876595	3
8	7415	33.59330476595	1
8	7422	33.593314812566	3
8	7433	33.593562812566	1
8	7488	34.548813576499	3
8	7493	34.548859576499	1
8	7506	34.548869576499	0
8	7514	34.549117576499	1
8	7526	34.549367576499	0
8	7532	34.549413576499	1
8	7546	34.549423724999	3
8	7555	34.549671724999	1
8	7578	34.592844764346	3
8	7591	34.592890764346	1
8	7596	34.592900765759	3
8	7605	34.593148765759	1
8	7616	34.593518765774	3
8	7621	34.593564765774	1
8	7636	34.593574918041	3
8	7648	34.593822918041	1
8	7703	35.548813536742	3
8	7708	35.548859536742	1
8	7721	35.548869536742	0
8	7729	35.549117536742	1
8	7741	35.549587536742	0
8	7747	35.549633536742	1
8	7761	35.549643605535	3
8	7769	35.549891605535	1
8	7791	35.592844773911	3
8	7803	35.592890773911	1
8	7810	35.592900793728	3
8	7819	35.593148793728	1
8	7832	35.593818793669	3
8	7837	35.593864793669	1
8	7851	35.593875045481	3
8	7861	35.594123045481	1
8	7918	36.548813517897	3
8	7923	36.548859517897	1
8	7936	36.548869517897	0
8	7944	36.549117517897	1
8	7956	36.549367517897	0
8	7962	36.549413517897	1
8	7976	36.549423549171	3
8	7984	36.549671549171	1
8	8006	36.592844757891	3
8	8012	36.592890757891	1
8	8025	36.592900784383	3
8	8034	36.593148784383	1
8	8045	36.593418784401	3
8	8050	36.593464784401	1
8	8064	36.593475062773	3
8	8075	36.593723062773	1
8	8134	37.548813628352	3
8	8140	37.548859628352	1
8	8151	37.548869628352	0
8	8160	37.549117628352	1
8	8171	37.549787628352	0
8	8177	37.549833628352	1
8	8192	37.549843880699	3
8	8202	37.550091880699	1
8	8222	37.592844713226	3
8	8228	37.592890713226	1
8	8241	37.592900806791	3
8	8250	37.593148806791	1
8	8261	37.593738806812	3
8	8266	37.593784806812	1
8	8280	37.593794998574	3
8	8290	37.594042998574	1
8	8348	38.548813579435	3
8	8354	38.548859579435	1
8	8365	38.548869579435	0
8	8374	38.549117579435	1
8	8385	38.549667579435	0
8	8391	38.549713579435	1
8	8406	38.549723733513	3
8	8416	38.549971733513	1
8	8435	38.592844669424	3
8	8440	38.592890669424	1
8	8455	38.592900775212	3
8	8464	38.593148775212	1
8	8475	38.593798775235	3
8	8480	38.593844775235	1
8	8493	38.593854879038	3
8	8502	38.594102879038	1
8	8561	39.548813591906	3
8	8566	39.548859591906	1
8	8579	39.548869591906	0
8	8587	39.549117591906	1
8	8599	39.549767591906	0
8	8605	39.549813591906	1
8	8619	39.549823770915	3
8	8628	39.550071770915	1
8	8650	39.5928446434	3
8	8655	39.5928906434	1
8	8670	39.592900740167	3
8	8679	39.593148740167	1
8	8690	39.59325874018	3
8	8695	39.59330474018	1
8	8708	39.593314787285	3
8	8716	39.593562787285	1
8	8778	40.548813561808	3
8	8784	40.548859561808	1
8	8795	40.548869561808	0
8	8804	40.549117561808	1
8	8815	40.549447561808	0
8	8821	40.549493561808	1
8	8836	40.549503680873	3
8	8846	40.549751680873	1
8	8866	40.592844629057	3
8	8871	40.592890629057	1
8	8887	40.592900810376	3
8	8897	40.593148810376	1
8	8907	40.593598810393	3
8	8917	40.593644810393	1
8	8924	40.59365481583	3
8	8932	40.59390281583	1
8	8994	41.548813600527	3
8	9000	41.548859600527	1
8	9011	41.548869600527	0
8	9020	41.549117600527	1
8	9031	41.549527600527	0
8	9037	41.549573600527	1
9	0	0	1
9	38	0.548813502304	0
9	44	0.549261502304	1
9	69	0.549311797573	3
9	75	0.549349797573	1
9	85	0.549359797573	0
9	94	0.549607797573	1
9	105	0.549717797573	0
9	111	0.549763797573	1
9	128	0.549774092783	3
9	138	0.550022092783	1
9	148	0.550612092747	3
9	154	0.550658092747	1
9	163	0.550668092747	0
9	172	0.550916092747	1
9	199	0.592844652555	3
9	211	0.593292652555	1
9	227	0.593482674041	3
9	238	0.593520674041	1
9	246	0.593530690708	3
9	255	0.593778690708	1
9	266	0.594008690733	3
9	278	0.594054690733	1
9	286	0.594064712245	3
9	295	0.594312712245	1
9	306	0.594742712257	3
9	316	0.594788712257	1
9	324	0.594798729053	3
9	333	0.595046729053	1
9	393	1.548813502304	0
9	399	1.548859502304	1
9	415	1.54886972325	3
9	424	1.54911772325	1
9	435	1.549527723231	3
9	440	1.549573723231	1
9	451	1.549583723231	0
9	459	1.549831723231	1
9	482	1.592844683544	3
9	487	1.592890683544	1
9	502	1.592900769871	3
9	510	1.593148769871	1
9	522	1.593658769886	3
9	527	1.593704769886	1
9	540	1.593714857086	3
9	548	1.593962857086	1
9	607	2.548813502304	0
9	613	2.548859502304	1
9	629	2.548869548673	3
9	636	2.549117548673	1
9	649	2.549647548546	3
9	654	2.549693548546	1
9	665	2.549703548546	0
9	673	2.549951548546	1
9	699	2.592844725397	3
9	704	2.592890725397	1
9	719	2.592900854834	3
9	728	2.593148854834	1
9	739	2.593438854857	3
9	744	2.593484854857	1
9	757	2.593494987176	3
9	766	2.593742987176	1
9	822	3.548813502304	0
9	828	3.548859502304	1
9	845	3.548869684845	3
9	855	3.549117684845	1
9	865	3.549187684848	3
9	871	3.549233684848	1
9	880	3.549243684848	0
9	889	3.549491684848	1
9	914	3.592844696492	3
9	919	3.592890696492	1
9	935	3.592900823961	3
9	945	3.593148823961	1
9	955	3.593338823913	3
9	961	3.593384823913	1
9	972	3.59339494674	3
9	981	3.59364294674	1
9	1038	4.548813502304	0
9	1044	4.548859502304	1
9	1061	4.548869697826	3
9	1072	4.549117697826	1
9	1082	4.549447697809	3
9	1088	4.549493697809	1
9	1097	4.549503697809	0
9	1106	4.549751697809	1
9	1129	4.592844662599	3
9	1134	4.592890662599	1
9	1149	4.592900755884	3
9	1158	4.593148755884	1
9	1169	4.5935387559	3
9	1174	4.5935847559	1
9	1187	4.593594848349	3
9	1196	4.593842848349	1
9	1253	5.548813502304	0
9	1259	5.548859502304	1
9	1276	5.548869656175	3
9	1287	5.549117656175	1
9	1297	5.549667656138	3
9	1303	5.549713656138	1
9	1312	5.549723656138	0
9	1321	5.549971656138	1
9	1344	5.592844672265	3
9	1350	5.592890672265	1
9	1363	5.592900866041	3
9	1372	5.593148866041	1
9	1383	5.593358866073	3
9	1388	5.593404866073	1
9	1402	5.593414974224	3
9	1412	5.593662974224	1
9	1469	6.548813502304	0
9	1475	6.548859502304	1
9	1491	6.548869582867	3
9	1499	6.549117582867	1
9	1511	6.54956758286	3
9	1516	6.54961358286	1
9	1527	6.54962358286	0
9	1535	6.54987158286	1
9	1560	6.592844642361	3
9	1565	6.592890642361	1
9	1581	6.592900842134	3
9	1591	6.593148842134	1
9	1601	6.593518842085	3
9	1611	6.593564842085	1
9	1618	6.593574850301	3
9	1627	6.593822850301	1
9	1684	7.548813502304	0
9	1690	7.548859502304	1
9	1708	7.548869695985	3
9	1719	7.549117695985	1
9	1728	7.549267696	3
9	1735	7.549313696	1
9	1742	7.549323696	0
9	1752	7.549571696	1
9	1776	7.592844694398	3
9	1789	7.592890694398	1
9	1795	7.592900710885	3
9	1805	7.593148710885	1
9	1815	7.593498710874	3
9	1825	7.593544710874	1
9	1834	7.593554782037	3
9	1845	7.593802782037	1
9	1898	8.548813502304	0
9	1904	8.548859502304	1
9	1921	8.54886977653	3
9	1931	8.54911777653	1
9	1941	8.549167776543	3
9	1947	8.549213776543	1
9	1956	8.549223776543	0
9	1965	8.549471776543	1
9	1989	8.592844720309	3
9	1995	8.592890720309	1
9	2008	8.592900881634	3
9	2017	8.593148881634	1
9	2028	8.593258881653	3
9	2033	8.593304881653	1
9	2047	8.593315039564	3
9	2057	8.593563039564	1
9	2114	9.548813502304	0
9	2120	9.548859502304	1
9	2137	9.548869727127	3
9	2147	9.549117727127	1
9	2157	9.549507727094	3
9	2163	9.549553727094	1
9	2172	9.549563727094	0
9	2181	9.549811727094	1
9	2204	9.592844760179	3
9	2210	9.592890760179	1
9	2223	9.592900844744	3
9	2233	9.593148844744	1
9	2244	9.593778844703	3
9	2249	9.593824844703	1
9	2263	9.593835049204	3
9	2273	9.594083049204	1
9	2328	10.548813502304	0
9	2334	10.548859502304	1
9	2350	10.548869632884	3
9	2359	10.549117632884	1
9	2370	10.549547632855	3
9	2375	10.549593632855	1
9	2386	10.549603632855	0
9	2394	10.549851632855	1
9	2419	10.592844731949	3
9	2432	10.592890731949	1
9	2437	10.592900773412	3
9	2447	10.593148773412	1
9	2458	10.593338773406	3
9	2463	10.593384773406	1
9	2478	10.59339493255	3
9	2489	10.59364293255	1
9	2542	11.548813502304	0
9	2548	11.548859502304	1
9	2564	11.548869652911	3
9	2573	11.549117652911	1
9	2584	11.549187652928	3
9	2589	11.549233652928	1
9	2600	11.549243652928	0
9	2608	11.549491652928	1
9	2632	11.592844704308	3
9	2644	11.592890704308	1
9	2651	11.592900731773	3
9	2660	11.593148731773	1
9	2672	11.593698731764	3
9	2677	11.593744731764	1
9	2691	11.59375484581	3
9	2701	11.59400284581	1
9	2758	12.548813502304	0
9	2764	12.548859502304	1
9	2782	12.548869710151	3
9	2793	12.549117710151	1
9	2802	12.549167710169	3
9	2809	12.549213710169	1
9	2816	12.549223710169	0
9	2826	12.549471710169	1
9	2849	12.592844651491	3
9	2861	12.592890651491	1
9	2869	12.592900661814	3
9	2878	12.593148661814	1
9	2889	12.593398661804	3
9	2899	12.593444661804	1
9	2907	12.593454687084	3
9	2916	12.593702687084	1
9	2972	13.548813502304	0
9	2978	13.548859502304	1
9	2995	13.548869730347	3
9	3005	13.549117730347	1
9	3015	13.549627730371	3
9	3021	13.549673730371	1
9	3030	13.549683730371	0
9	3039	13.549931730371	1
9	3063	13.592844666182	3
9	3068	13.592890666182	1
9	3083	13.592900683096	3
9	3091	13.593148683096	1
9	3103	13.593798683078	3
9	3108	13.593844683078	1
9	3121	13.593854781083	3
9	3130	13.594102781083	1
9	3186	14.548813502304	0
9	3192	14.548859502304	1
9	3209	14.548869604482	3
9	3218	14.549117604482	1
9	3229	14.549527604582	3
9	3235	14.549573604582	1
9	3244	14.549583604582	0
9	3253	14.549831604582	1
9	3280	14.592844722626	3
9	3293	14.592890722626	1
9	3298	14.592900728778	3
9	3307	14.593148728778	1
9	3318	14.593758728795	3
9	3323	14.593804728795	1
9	3338	14.593814925554	3
9	3349	14.594062925554	1
9	3401	15.548813502304	0
9	3407	15.548859502304	1
9	3425	15.548869819377	3
9	3436	15.549117819377	1
9	3445	15.549167819395	3
9	3452	15.549213819395	1
9	3459	15.549223819395	0
9	3469	15.549471819395	1
9	3494	15.592844729405	3
9	3507	15.592890729405	1
9	3512	15.592900749814	3
9	3521	15.593148749814	1
9	3532	15.593278749818	3
9	3537	15.593324749818	1
9	3552	15.593334938992	3
9	3563	15.593582938992	1
9	3617	16.548813502304	0
9	3623	16.548859502304	1
9	3640	16.548869723664	3
9	3650	16.549117723664	1
9	3660	16.549267723622	3
9	3666	16.549313723622	1
9	3675	16.549323723622	0
9	3684	16.549571723622	1
9	3708	16.592844701517	3
9	3714	16.592890701517	1
9	3727	16.592900765532	3
9	3736	16.593148765532	1
9	3747	16.593358765614	3
9	3752	16.593404765614	1
9	3766	16.593414888254	3
9	3776	16.593662888254	1
9	3832	17.548813502304	0
9	3838	17.548859502304	1
9	3855	17.548869594692	3
9	3864	17.549117594692	1
9	3876	17.549507594651	3
9	3882	17.549553594651	1
9	3891	17.549563594651	0
9	3900	17.549811594651	1
9	3922	17.592844637088	3
9	3927	17.592890637088	1
9	3942	17.592900802309	3
9	3951	17.593148802309	1
9	3962	17.593278802273	3
9	3967	17.593324802273	1
9	3980	17.593334829346	3
9	3988	17.593582829346	1
9	4046	18.548813502304	0
9	4052	18.548859502304	1
9	4069	18.548869540782	3
9	4078	18.549117540782	1
9	4090	18.549367540814	3
9	4096	18.549413540814	1
9	4105	18.549423540814	0
9	4114	18.549671540814	1
9	4136	18.592844627679	3
9	4141	18.592890627679	1
9	4158	18.592900721646	3
9	4169	18.593148721646	1
9	4178	18.593818721706	3
9	4189	18.593864721706	1
9	4194	18.593874721984	3
9	4203	18.594122721984	1
9	4261	19.548813502304	0
9	4267	19.548859502304	1
9	4284	19.548869652007	3
9	4294	19.549117652007	1
9	4304	19.549187651996	3
9	4310	19.549233651996	1
9	4319	19.549243651996	0
9	4328	19.549491651996	1
9	4353	19.592844668377	3
9	4359	19.592890668377	1
9	4373	19.592900795467	3
9	4383	19.593148795467	1
9	4393	19.593338795465	3
9	4403	19.593384795465	1
9	4411	19.593394835585	3
9	4421	19.593642835585	1
9	4475	20.548813502304	0
9	4481	20.548859502304	1
9	4497	20.548869577412	3
9	4504	20.549117577412	1
9	4518	20.54966757733	3
9	4523	20.54971357733	1
9	4534	20.54972357733	0
9	4542	20.54997157733	1
9	4568	20.592844691823	3
9	4574	20.592890691823	1
9	4587	20.59290083381	3
9	4596	20.59314883381	1
9	4607	20.593318833822	3
9	4612	20.593364833822	1
9	4626	20.593374931746	3
9	4636	20.593622931746	1
9	4690	21.548813502304	0
9	4696	21.548859502304	1
9	4713	21.548869633947	3
9	4722	21.549117633947	1
9	4733	21.549387634001	3
9	4739	21.549433634001	1
9	4748	21.549443634001	0
9	4758	21.549691634001	1
9	4783	21.592844698566	3
9	4789	21.592890698566	1
9	4804	21.592900884871	3
9	4815	21.593148884871	1
9	4824	21.593558884928	3
9	4835	21.593604884928	1
9	4841	21.593614897448	3
9	4851	21.593862897448	1
9	4906	22.548813502304	0
9	4912	22.548859502304	1
9	4928	22.548869574275	3
9	4935	22.549117574275	1
9	4948	22.54916757426	3
9	4953	22.54921357426	1
9	4964	22.54922357426	0
9	4972	22.54947157426	1
9	4998	22.592844707695	3
9	5004	22.592890707695	1
9	5019	22.592900847503	3
9	5030	22.593148847503	1
9	5040	22.593258847488	3
9	5051	22.593304847488	1
9	5057	22.593314903618	3
9	5067	22.593562903618	1
9	5121	23.548813502304	0
9	5127	23.548859502304	1
9	5143	23.548869544219	3
9	5150	23.549117544219	1
9	5163	23.549407544244	3
9	5168	23.549453544244	1
9	5179	23.549463544244	0
9	5187	23.549711544244	1
9	5212	23.592844719837	3
9	5217	23.592890719837	1
9	5232	23.592900799821	3
9	5241	23.593148799821	1
9	5253	23.593398799796	3
9	5258	23.593444799796	1
9	5271	23.593454971424	3
9	5280	23.593702971424	1
9	5338	24.548813502304	0
9	5344	24.548859502304	1
9	5362	24.548869627391	3
9	5373	24.549117627391	1
9	5382	24.549387627421	3
9	5389	24.549433627421	1
9	5396	24.549443627421	0
9	5406	24.549691627421	1
9	5429	24.592844690315	3
9	5435	24.592890690315	1
9	5448	24.592900745319	3
9	5457	24.593148745319	1
9	5468	24.593318745349	3
9	5473	24.593364745349	1
9	5487	24.593374859855	3
9	5497	24.593622859855	1
9	5552	25.548813502304	0
9	5558	25.548859502304	1
9	5576	25.548869715755	3
9	5587	25.549117715755	1
9	5596	25.549467715728	3
9	5603	25.549513715728	1
9	5610	25.549523715728	0
9	5620	25.549771715728	1
9	5644	25.592844692514	3
9	5657	25.592890692514	1
9	5663	25.592900756851	3
9	5673	25.593148756851	1
9	5683	25.593598756873	3
9	5693	25.593644756873	1
9	5702	25.593654817573	3
9	5713	25.593902817573	1
9	5768	26.548813502304	0
9	5774	26.548859502304	1
9	5790	26.548869625052	3
9	5798	26.549117625052	1
9	5810	26.549407625023	3
9	5815	26.549453625023	1
9	5826	26.549463625023	0
9	5834	26.549711625023	1
9	5861	26.592844738623	3
9	5874	26.592890738623	1
9	5881	26.592900814194	3
9	5892	26.593148814194	1
9	5901	26.593598814146	3
9	5912	26.593644814146	1
9	5919	26.59365484616	3
9	5930	26.59390284616	1
9	5982	27.548813502304	0
9	5988	27.548859502304	1
9	6004	27.548869507923	3
9	6011	27.549117507923	1
9	6024	27.549447507952	3
9	6029	27.549493507952	1
9	6040	27.549503507952	0
9	6048	27.549751507952	1
9	6074	27.592844724492	3
9	6086	27.592890724492	1
9	6094	27.592900794348	3
9	6104	27.593148794348	1
9	6114	27.593598794334	3
9	6124	27.593644794334	1
9	6132	27.593654902179	3
9	6142	27.593902902179	1
9	6199	28.548813502304	0
9	6205	28.548859502304	1
9	6223	28.548869610499	3
9	6234	28.549117610499	1
9	6243	28.549687610566	3
9	6250	28.549733610566	1
9	6257	28.549743610566	0
9	6267	28.549991610566	1
9	6290	28.592844660379	3
9	6303	28.592890660379	1
9	6310	28.592900684411	3
9	6321	28.593148684411	1
9	6330	28.593498684435	3
9	6341	28.593544684435	1
9	6348	28.59355469287	3
9	6359	28.59380269287	1
9	6413	29.548813502304	0
9	6419	29.548859502304	1
9	6437	29.548869662916	3
9	6448	29.549117662916	1
9	6457	29.549587662995	3
9	6464	29.549633662995	1
9	6471	29.549643662995	0
9	6481	29.549891662995	1
9	6503	29.592844629103	3
9	6508	29.592890629103	1
9	6525	29.592900841322	3
9	6536	29.593148841322	1
9	6545	29.593518841377	3
9	6556	29.593564841377	1
9	6561	29.593574842141	3
9	6570	29.593822842141	1
9	6627	30.548813502304	0
9	6633	30.548859502304	1
9	6651	30.548869749759	3
9	6662	30.549117749759	1
9	6671	30.549267749763	3
9	6678	30.549313749763	1
9	6685	30.549323749763	0
9	6695	30.549571749763	1
9	6718	30.59284466806	3
9	6723	30.59289066806	1
9	6740	30.592900791346	3
9	6751	30.593148791346	1
9	6760	30.593258791338	3
9	6771	30.593304791338	1
9	6776	30.593314837955	3
9	6785	30.593562837955	1
9	6842	31.548813502304	0
9	6848	31.548859502304	1
9	6864	31.548869615468	3
9	6873	31.549117615468	1
9	6884	31.549787615339	3
9	6889	31.549833615339	1
9	6900	31.549843615339	0
9	6908	31.550091615339	1
9	6933	31.592844656453	3
9	6938	31.592890656453	1
9	6954	31.592900861013	3
9	6964	31.593148861013	1
9	6974	31.593798861038	3
9	6980	31.593844861038	1
9	6991	31.593854936242	3
9	7000	31.594102936242	1
9	7056	32.548813502304	0
9	7062	32.548859502304	1
9	7079	32.548869610733	3
9	7089	32.549117610733	1
9	7099	32.549507610781	3
9	7105	32.549553610781	1
9	7114	32.549563610781	0
9	7123	32.549811610781	1
9	7148	32.59284466674	3
9	7154	32.59289066674	1
9	7167	32.592900767836	3
9	7176	32.593148767836	1
9	7188	32.5932787678	3
9	7193	32.5933247678	1
9	7207	32.593334863983	3
9	7217	32.593582863983	1
9	7271	33.548813502304	0
9	7277	33.548859502304	1
9	7295	33.548869697552	3
9	7306	33.549117697552	1
9	7315	33.549487697506	3
9	7322	33.549533697506	1
9	7329	33.549543697506	0
9	7339	33.549791697506	1
9	7362	33.592844642841	3
9	7367	33.592890642841	1
9	7383	33.59290074582	3
9	7393	33.59314874582	1
9	7403	33.593258745767	3
9	7413	33.593304745767	1
9	7420	33.593314770242	3
9	7429	33.593562770242	1
9	7486	34.548813502304	0
9	7492	34.548859502304	1
9	7509	34.5488696507	3
9	7519	34.5491176507	1
9	7529	34.549367650746	3
9	7535	34.549413650746	1
9	7544	34.549423650746	0
9	7553	34.549671650746	1
9	7577	34.592844740532	3
9	7589	34.592890740532	1
9	7598	34.592900774641	3
9	7609	34.593148774641	1
9	7618	34.593518774732	3
9	7629	34.593564774732	1
9	7635	34.593574894211	3
9	7646	34.593822894211	1
9	7701	35.548813502304	0
9	7707	35.548859502304	1
9	7723	35.548869571177	3
9	7730	35.549117571177	1
9	7743	35.54958757114	3
9	7748	35.54963357114	1
9	7759	35.54964357114	0
9	7767	35.54989157114	1
9	7792	35.592844787035	3
9	7805	35.592890787035	1
9	7811	35.592900825764	3
9	7821	35.593148825764	1
9	7833	35.593818825755	3
9	7839	35.593864825755	1
9	7852	35.593875058774	3
9	7863	35.594123058774	1
9	7916	36.548813502304	0
9	7922	36.548859502304	1
9	7939	36.548869533495	3
9	7948	36.549117533495	1
9	7959	36.549367533532	3
9	7965	36.549413533532	1
9	7974	36.549423533532	0
9	7983	36.549671533532	1
9	8005	36.592844738987	3
9	8010	36.592890738987	1
9	8026	36.592900799889	3
9	8036	36.593148799889	1
9	8046	36.593418799956	3
9	8052	36.593464799956	1
9	8063	36.593475043819	3
9	8073	36.593723043819	1
9	8131	37.548813502304	0
9	8137	37.548859502304	1
9	8155	37.548869754407	3
9	8166	37.549117754407	1
9	8175	37.549787754522	3
9	8182	37.549833754522	1
9	8189	37.549843754522	0
9	8199	37.550091754522	1
9	8221	37.592844651214	3
9	8226	37.592890651214	1
9	8243	37.592900936642	3
9	8254	37.593148936642	1
9	8263	37.593738936765	3
9	8274	37.593784936765	1
9	8279	37.59379493678	3
9	8288	37.59404293678	1
9	8345	38.548813502304	0
9	8351	38.548859502304	1
9	8369	38.54886965656	3
9	8380	38.54911765656	1
9	8389	38.549667656477	3
9	8396	38.549713656477	1
9	8403	38.549723656477	0
9	8413	38.549971656477	1
9	8436	38.592844678434	3
9	8442	38.592890678434	1
9	8457	38.592900842704	3
9	8468	38.593148842704	1
9	8477	38.593798842631	3
9	8488	38.593844842631	1
9	8494	38.593854888067	3
9	8504	38.594102888067	1
9	8559	39.548813502304	0
9	8565	39.548859502304	1
9	8583	39.548869681502	3
9	8594	39.549117681502	1
9	8603	39.549767681413	3
9	8610	39.549813681413	1
9	8617	39.549823681413	0
9	8627	39.550071681413	1
9	8652	39.592844712177	3
9	8665	39.592890712177	1
9	8672	39.59290081155	3
9	8683	39.59314881155	1
9	8692	39.593258811542	3
9	8703	39.593304811542	1
9	8710	39.593314856001	3
9	8721	39.593562856001	1
9	8775	40.548813502304	0
9	8781	40.548859502304	1
9	8798	40.548869621314	3
9	8807	40.549117621314	1
9	8818	40.549447621339	3
9	8824	40.549493621339	1
9	8833	40.549503621339	0
9	8842	40.549751621339	1
9	8867	40.592844674361	3
9	8873	40.592890674361	1
9	8888	40.592900851669	3
9	8899	40.593148851669	1
9	8908	40.593598851698	3
9	8919	40.593644851698	1
9	8925	40.59365486106	3
9	8935	40.59390286106	1
9	8991	41.548813502304	0
9	8997	41.548859502304	1
9	9014	41.548869698751	3
9	9024	41.549117698751	1
9	9034	41.549527698761	3
9	9040	41.549573698761	1
10	0	0	1
10	41	0.548813540355	3
10	50	0.549261540355	1
10	68	0.549311781699	3
10	73	0.549349781699	1
10	88	0.549359835629	3
10	98	0.549607835629	1
10	108	0.549717835632	3
10	114	0.549763835632	1
10	127	0.54977407695	3
10	136	0.55002207695	1
10	147	0.550612076987	3
10	152	0.550658076987	1
10	166	0.550668130815	3
10	176	0.550916130815	1
10	198	0.592844635426	3
10	203	0.593292635426	1
10	224	0.593482635426	0
10	230	0.593520635426	1
10	245	0.593530673589	3
10	252	0.593778673589	1
10	265	0.594008673621	3
10	270	0.594054673621	1
10	283	0.594064673621	0
10	291	0.594312673621	1
10	303	0.594742673621	0
10	309	0.594788673621	1
10	323	0.594798711953	3
10	330	0.595046711953	1
10	396	1.548813568233	3
10	402	1.548859568233	1
10	416	1.548869776804	3
10	426	1.549117776804	1
10	436	1.549527776814	3
10	446	1.549573776814	1
10	454	1.549583789174	3
10	464	1.549831789174	1
10	483	1.592844703099	3
10	489	1.592890703099	1
10	500	1.592900703099	0
10	509	1.593148703099	1
10	520	1.593658703099	0
10	526	1.593704703099	1
10	541	1.593714876633	3
10	551	1.593962876633	1
10	610	2.548813607947	3
10	622	2.548859607947	1
10	631	2.54886965307	3
10	642	2.54911765307	1
10	651	2.549647652981	3
10	662	2.549693652981	1
10	668	2.549703654228	3
10	678	2.549951654228	1
10	701	2.592844747229	3
10	708	2.592890747229	1
10	717	2.592900747229	0
10	727	2.593148747229	1
10	737	2.593438747229	0
10	743	2.593484747229	1
10	759	2.593495009014	3
10	770	2.593743009014	1
10	825	3.54881358966	3
10	831	3.54885958966	1
10	844	3.548869602418	3
10	853	3.549117602418	1
10	864	3.549187602447	3
10	869	3.549233602447	1
10	883	3.549243772155	3
10	893	3.549491772155	1
10	915	3.592844741561	3
10	921	3.592890741561	1
10	932	3.592900741561	0
10	941	3.593148741561	1
10	952	3.593338741561	0
10	958	3.593384741561	1
10	973	3.593394991795	3
10	983	3.593642991795	1
10	1041	4.548813547956	3
10	1047	4.548859547956	1
10	1062	4.548869725967	3
10	1074	4.549117725967	1
10	1083	4.549447725995	3
10	1094	4.549493725995	1
10	1100	4.549503743474	3
10	1110	4.549751743474	1
10	1131	4.592844709241	3
10	1138	4.592890709241	1
10	1147	4.592900709241	0
10	1157	4.593148709241	1
10	1167	4.593538709241	0
10	1173	4.593584709241	1
10	1189	4.59359489501	3
10	1200	4.59384289501	1
10	1257	5.548813597978	3
10	1270	5.548859597978	1
10	1277	5.548869749105	3
10	1289	5.549117749105	1
10	1298	5.549667749107	3
10	1309	5.549713749107	1
10	1316	5.549723751874	3
10	1327	5.549971751874	1
10	1345	5.592844767349	3
10	1352	5.592890767349	1
10	1361	5.592900767349	0
10	1371	5.593148767349	1
10	1381	5.593358767349	0
10	1387	5.593404767349	1
10	1403	5.593415069345	3
10	1414	5.593663069345	1
10	1473	6.548813627588	3
10	1486	6.548859627588	1
10	1493	6.548869673797	3
10	1504	6.549117673797	1
10	1513	6.549567673673	3
10	1524	6.549613673673	1
10	1531	6.549623708078	3
10	1542	6.549871708078	1
10	1562	6.592844720392	3
10	1569	6.592890720392	1
10	1578	6.592900720392	0
10	1588	6.593148720392	1
10	1598	6.593518720392	0
10	1604	6.593564720392	1
10	1620	6.593574928173	3
10	1631	6.593822928173	1
10	1686	7.548813554044	3
10	1691	7.548859554044	1
10	1707	7.548869681082	3
10	1717	7.549117681082	1
10	1727	7.549267681133	3
10	1733	7.549313681133	1
10	1744	7.549323747726	3
10	1753	7.549571747726	1
10	1774	7.592844660166	3
10	1779	7.592890660166	1
10	1792	7.592900660166	0
10	1800	7.593148660166	1
10	1812	7.593498660166	0
10	1818	7.593544660166	1
10	1832	7.593554747883	3
10	1840	7.593802747883	1
10	1901	8.548813605546	3
10	1907	8.548859605546	1
10	1922	8.548869842406	3
10	1933	8.549117842406	1
10	1942	8.54916784242	3
10	1953	8.54921384242	1
10	1959	8.549223879808	3
10	1969	8.549471879808	1
10	1990	8.592844775996	3
10	1997	8.592890775996	1
10	2006	8.592900775996	0
10	2016	8.593148775996	1
10	2026	8.593258775996	0
10	2032	8.593304775996	1
10	2048	8.593315095259	3
10	2059	8.593563095259	1
10	2116	9.548813588447	3
10	2121	9.548859588447	1
10	2138	9.548869742733	3
10	2149	9.549117742733	1
10	2158	9.549507742661	3
10	2169	9.549553742661	1
10	2174	9.549563813195	3
10	2183	9.549811813195	1
10	2205	9.592844760982	3
10	2212	9.592890760982	1
10	2221	9.592900760982	0
10	2232	9.593148760982	1
10	2242	9.593778760982	0
10	2248	9.593824760982	1
10	2264	9.593835049967	3
10	2275	9.594083049967	1
10	2330	10.548813559607	3
10	2335	10.548859559607	1
10	2352	10.548869658646	3
10	2363	10.549117658646	1
10	2372	10.549547658642	3
10	2383	10.549593658642	1
10	2388	10.549603690147	3
10	2397	10.549851690147	1
10	2418	10.592844716705	3
10	2424	10.592890716705	1
10	2435	10.592900716705	0
10	2445	10.593148716705	1
10	2456	10.593338716705	0
10	2462	10.593384716705	1
10	2477	10.593394917306	3
10	2487	10.593642917306	1
10	2544	11.548813547373	3
10	2549	11.548859547373	1
10	2565	11.548869695092	3
10	2575	11.549117695092	1
10	2585	11.549187695109	3
10	2595	11.549233695109	1
10	2602	11.549243697993	3
10	2610	11.549491697993	1
10	2631	11.592844687164	3
10	2636	11.592890687164	1
10	2649	11.592900687164	0
10	2658	11.593148687164	1
10	2670	11.593698687164	0
10	2676	11.593744687164	1
10	2690	11.593754828664	3
10	2699	11.594002828664	1
10	2760	12.548813530249	3
10	2765	12.548859530249	1
10	2781	12.548869699354	3
10	2791	12.549117699354	1
10	2801	12.54916769935	3
10	2807	12.54921369935	1
10	2818	12.549223738112	3
10	2827	12.549471738112	1
10	2848	12.592844634236	3
10	2853	12.592890634236	1
10	2866	12.592900634236	0
10	2874	12.593148634236	1
10	2886	12.593398634236	0
10	2892	12.593444634236	1
10	2906	12.593454669854	3
10	2914	12.593702669854	1
10	2974	13.548813512485	3
10	2979	13.548859512485	1
10	2994	13.548869720623	3
10	3003	13.549117720623	1
10	3014	13.549627720663	3
10	3019	13.549673720663	1
10	3032	13.549683740534	3
10	3040	13.549931740534	1
10	3064	13.592844673786	3
10	3070	13.592890673786	1
10	3081	13.592900673786	0
10	3090	13.593148673786	1
10	3101	13.593798673786	0
10	3107	13.593844673786	1
10	3122	13.59385478867	3
10	3132	13.59410278867	1
10	3188	14.548813512403	3
10	3193	14.548859512403	1
10	3208	14.548869594394	3
10	3216	14.549117594394	1
10	3228	14.549527594482	3
10	3233	14.549573594482	1
10	3246	14.549583614697	3
10	3254	14.549831614697	1
10	3279	14.592844717806	3
10	3285	14.592890717806	1
10	3296	14.592900717806	0
10	3305	14.593148717806	1
10	3316	14.593758717806	0
10	3322	14.593804717806	1
10	3337	14.593814920723	3
10	3347	14.594062920723	1
10	3403	15.548813530461	3
10	3408	15.548859530461	1
10	3424	15.548869795439	3
10	3434	15.549117795439	1
10	3444	15.549167795459	3
10	3450	15.549213795459	1
10	3461	15.549223847556	3
10	3470	15.549471847556	1
10	3493	15.592844721185	3
10	3499	15.592890721185	1
10	3510	15.592900721185	0
10	3519	15.593148721185	1
10	3530	15.593278721185	0
10	3536	15.593324721185	1
10	3551	15.593334930781	3
10	3561	15.593582930781	1
10	3619	16.548813550114	3
10	3624	16.548859550114	1
10	3641	16.548869759457	3
10	3652	16.549117759457	1
10	3661	16.549267759455	3
10	3672	16.549313759455	1
10	3677	16.549323771524	3
10	3686	16.549571771524	1
10	3709	16.59284470976	3
10	3716	16.59289070976	1
10	3725	16.59290070976	0
10	3735	16.59314870976	1
10	3745	16.59335870976	0
10	3751	16.59340470976	1
10	3767	16.593414896491	3
10	3778	16.593662896491	1
10	3836	17.548813596262	3
10	3849	17.548859596262	1
10	3856	17.548869684963	3
10	3867	17.549117684963	1
10	3877	17.549507684869	3
10	3888	17.549553684869	1
10	3895	17.549563688537	3
10	3906	17.549811688537	1
10	3924	17.592844712546	3
10	3931	17.592890712546	1
10	3940	17.592900712546	0
10	3950	17.593148712546	1
10	3960	17.593278712546	0
10	3966	17.593324712546	1
10	3982	17.593334904775	3
10	3993	17.593582904775	1
10	4050	18.548813557708	3
10	4063	18.548859557708	1
10	4070	18.548869568579	3
10	4081	18.549117568579	1
10	4091	18.549367568618	3
10	4102	18.549413568618	1
10	4109	18.549423596254	3
10	4120	18.549671596254	1
10	4138	18.592844663506	3
10	4145	18.592890663506	1
10	4154	18.592900663506	0
10	4164	18.593148663506	1
10	4174	18.593818663506	0
10	4180	18.593864663506	1
10	4196	18.593874757819	3
10	4207	18.594122757819	1
10	4265	19.54881359804	3
10	4278	19.54885959804	1
10	4285	19.548869708286	3
10	4296	19.549117708286	1
10	4305	19.549187708281	3
10	4316	19.549233708281	1
10	4323	19.54924374773	3
10	4334	19.54949174773	1
10	4354	19.592844699967	3
10	4361	19.592890699967	1
10	4370	19.592900699967	0
10	4380	19.593148699967	1
10	4390	19.593338699967	0
10	4396	19.593384699967	1
10	4412	19.593394867163	3
10	4423	19.593642867163	1
10	4479	20.548813598577	3
10	4492	20.548859598577	1
10	4499	20.548869657065	3
10	4510	20.549117657065	1
10	4520	20.549667657056	3
10	4531	20.549713657056	1
10	4538	20.549723673624	3
10	4549	20.549971673624	1
10	4569	20.592844736382	3
10	4576	20.592890736382	1
10	4585	20.592900736382	0
10	4595	20.593148736382	1
10	4605	20.593318736382	0
10	4611	20.593364736382	1
10	4627	20.593374976343	3
10	4638	20.593622976343	1
10	4694	21.548813667541	3
10	4707	21.548859667541	1
10	4714	21.548869676612	3
10	4725	21.549117676612	1
10	4734	21.549387676608	3
10	4745	21.549433676608	1
10	4752	21.549443799292	3
10	4764	21.549691799292	1
10	4784	21.592844715801	3
10	4791	21.592890715801	1
10	4800	21.592900715801	0
10	4810	21.593148715801	1
10	4820	21.593558715801	0
10	4826	21.593604715801	1
10	4842	21.593614914585	3
10	4853	21.593862914585	1
10	4910	22.548813637323	3
10	4923	22.548859637323	1
10	4930	22.548869643347	3
10	4941	22.549117643347	1
10	4950	22.549167643348	3
10	4961	22.549213643348	1
10	4968	22.549223709262	3
10	4979	22.549471709262	1
10	4999	22.592844714341	3
10	5006	22.592890714341	1
10	5015	22.592900714341	0
10	5025	22.593148714341	1
10	5036	22.593258714341	0
10	5042	22.593304714341	1
10	5058	22.593314910268	3
10	5069	22.593562910268	1
10	5124	23.548813562263	3
10	5136	23.548859562263	1
10	5144	23.548869598598	3
10	5153	23.549117598598	1
10	5164	23.549407598586	3
10	5174	23.549453598586	1
10	5182	23.549463604166	3
10	5191	23.549711604166	1
10	5214	23.592844742197	3
10	5221	23.592890742197	1
10	5230	23.592900742197	0
10	5240	23.593148742197	1
10	5251	23.593398742197	0
10	5257	23.593444742197	1
10	5273	23.593454993813	3
10	5284	23.593702993813	1
10	5340	24.548813543357	3
10	5345	24.548859543357	1
10	5361	24.54886961601	3
10	5371	24.54911761601	1
10	5381	24.549387616026	3
10	5387	24.549433616026	1
10	5398	24.549443668518	3
10	5407	24.549691668518	1
10	5430	24.592844701167	3
10	5437	24.592890701167	1
10	5446	24.592900701167	0
10	5456	24.593148701167	1
10	5466	24.593318701167	0
10	5472	24.593364701167	1
10	5488	24.593374870687	3
10	5499	24.593622870687	1
10	5555	25.548813578899	3
10	5561	25.548859578899	1
10	5575	25.548869707049	3
10	5585	25.549117707049	1
10	5595	25.549467707013	3
10	5601	25.549513707013	1
10	5613	25.549523792344	3
10	5623	25.549771792344	1
10	5643	25.592844678919	3
10	5649	25.592890678919	1
10	5660	25.592900678919	0
10	5669	25.593148678919	1
10	5680	25.593598678919	0
10	5686	25.593644678919	1
10	5701	25.593654803973	3
10	5711	25.593902803973	1
10	5772	26.548813644138	3
10	5785	26.548859644138	1
10	5792	26.54886966708	3
10	5803	26.54911766708	1
10	5812	26.549407667137	3
10	5823	26.549453667137	1
10	5830	26.549463766919	3
10	5841	26.549711766919	1
10	5859	26.592844670148	3
10	5864	26.592890670148	1
10	5877	26.592900670148	0
10	5885	26.593148670148	1
10	5897	26.593598670148	0
10	5903	26.593644670148	1
10	5917	26.593654777639	3
10	5925	26.593902777639	1
10	5985	27.548813592441	3
10	5997	27.548859592441	1
10	6005	27.548869597504	3
10	6014	27.549117597504	1
10	6025	27.549447597498	3
10	6035	27.549493597498	1
10	6043	27.549503598071	3
10	6052	27.549751598071	1
10	6073	27.592844705229	3
10	6078	27.592890705229	1
10	6091	27.592900705229	0
10	6099	27.593148705229	1
10	6111	27.593598705229	0
10	6117	27.593644705229	1
10	6131	27.593654882981	3
10	6140	27.593902882981	1
10	6202	28.548813552886	3
10	6208	28.548859552886	1
10	6221	28.548869560559	3
10	6230	28.549117560559	1
10	6241	28.549687560672	3
10	6246	28.549733560672	1
10	6260	28.549743661163	3
10	6270	28.549991661163	1
10	6289	28.592844632584	3
10	6295	28.592890632584	1
10	6306	28.592900632584	0
10	6315	28.593148632584	1
10	6326	28.593498632584	0
10	6332	28.593544632584	1
10	6347	28.593554665233	3
10	6356	28.593802665233	1
10	6417	29.548813616825	3
10	6430	29.548859616825	1
10	6435	29.548869618413	3
10	6444	29.549117618413	1
10	6455	29.549587618416	3
10	6460	29.549633618416	1
10	6475	29.549643777589	3
10	6486	29.549891777589	1
10	6505	29.592844722883	3
10	6512	29.592890722883	1
10	6521	29.592900722883	0
10	6531	29.593148722883	1
10	6541	29.593518722883	0
10	6547	29.593564722883	1
10	6563	29.593574935865	3
10	6574	29.593822935865	1
10	6630	30.548813593468	3
10	6636	30.548859593468	1
10	6649	30.548869660922	3
10	6658	30.549117660922	1
10	6669	30.549267660947	3
10	6674	30.549313660947	1
10	6688	30.549323840912	3
10	6698	30.549571840912	1
10	6719	30.592844701315	3
10	6725	30.592890701315	1
10	6736	30.592900701315	0
10	6745	30.593148701315	1
10	6756	30.593258701315	0
10	6762	30.593304701315	1
10	6777	30.593314871224	3
10	6787	30.593562871224	1
10	6846	31.548813605861	3
10	6859	31.548859605861	1
10	6866	31.548869639654	3
10	6877	31.549117639654	1
10	6886	31.549787639727	3
10	6897	31.549833639727	1
10	6904	31.549843718923	3
10	6915	31.550091718923	1
10	6935	31.592844756278	3
10	6942	31.592890756278	1
10	6951	31.592900756278	0
10	6961	31.593148756278	1
10	6971	31.593798756278	0
10	6977	31.593844756278	1
10	6993	31.59385503612	3
10	7004	31.59410303612	1
10	7060	32.548813559485	3
10	7073	32.548859559485	1
10	7080	32.548869655503	3
10	7091	32.549117655503	1
10	7100	32.54950765547	3
10	7111	32.54955365547	1
10	7118	32.549563667886	3
10	7129	32.549811667886	1
10	7149	32.592844715024	3
10	7156	32.592890715024	1
10	7165	32.592900715024	0
10	7175	32.593148715024	1
10	7186	32.593278715024	0
10	7192	32.593324715024	1
10	7208	32.593334912209	3
10	7219	32.593582912209	1
10	7274	33.548813574479	3
10	7280	33.548859574479	1
10	7294	33.548869689522	3
10	7304	33.549117689522	1
10	7314	33.549487689468	3
10	7320	33.549533689468	1
10	7332	33.549543769573	3
10	7342	33.549791769573	1
10	7363	33.592844680132	3
10	7369	33.592890680132	1
10	7380	33.592900680132	0
10	7389	33.593148680132	1
10	7400	33.593258680132	0
10	7406	33.593304680132	1
10	7421	33.593314807565	3
10	7431	33.593562807565	1
10	7489	34.548813577279	3
10	7501	34.548859577279	1
[...]
55	4192	18.593874710661	1
55	4193	18.593874710661	2
55	4199	18.594122710661	1
55	4200	18.594122710661	0
55	4350	19.592844616389	1
55	4351	19.592844616389	2
55	4355	19.592890616389	1
55	4356	19.592890616389	0
55	4408	19.593394783564	1
55	4409	19.593394783564	2
55	4415	19.593642783564	1
55	4416	19.593642783564	0
55	4565	20.592844616389	1
55	4566	20.592844616389	2
55	4570	20.592890616389	1
55	4571	20.592890616389	0
55	4623	20.593374856363	1
55	4624	20.593374856363	2
55	4632	20.593622856363	1
55	4633	20.593622856363	0
55	4780	21.592844616389	1
55	4781	21.592844616389	2
55	4785	21.592890616389	1
55	4786	21.592890616389	0
55	4838	21.593614815194	1
55	4839	21.593614815194	2
55	4845	21.593862815194	1
55	4846	21.593862815194	0
55	4995	22.592844616389	1
55	4996	22.592844616389	2
55	5000	22.592890616389	1
55	5001	22.592890616389	0
55	5054	22.593314812304	1
55	5055	22.593314812304	2
55	5061	22.593562812304	1
55	5062	22.593562812304	0
55	5210	23.592844616389	1
55	5211	23.592844616389	2
55	5215	23.592890616389	1
55	5216	23.592890616389	0
55	5269	23.593454868005	1
55	5270	23.593454868005	2
55	5278	23.593702868005	1
55	5279	23.593702868005	0
55	5426	24.592844616389	1
55	5427	24.592844616389	2
55	5431	24.592890616389	1
55	5432	24.592890616389	0
55	5484	24.593374785928	1
55	5485	24.593374785928	2
55	5493	24.593622785928	1
55	5494	24.593622785928	0
55	5640	25.592844616389	1
55	5641	25.592844616389	2
55	5645	25.592890616389	1
55	5646	25.592890616389	0
55	5698	25.593654741446	1
55	5699	25.593654741446	2
55	5705	25.593902741446	1
55	5706	25.593902741446	0
55	5857	26.592844616389	1
55	5858	26.592844616389	2
55	5862	26.592890616389	1
55	5863	26.592890616389	0
55	5915	26.593654723894	1
55	5916	26.593654723894	2
55	5922	26.593902723894	1
55	5923	26.593902723894	0
55	6071	27.592844616389	1
55	6072	27.592844616389	2
55	6076	27.592890616389	1
55	6077	27.592890616389	0
55	6129	27.593654794104	1
55	6130	27.593654794104	2
55	6136	27.593902794104	1
55	6137	27.593902794104	0
55	6286	28.592844616389	1
55	6287	28.592844616389	2
55	6291	28.592890616389	1
55	6292	28.592890616389	0
55	6344	28.593554648903	1
55	6345	28.593554648903	2
55	6352	28.593802648903	1
55	6353	28.593802648903	0
55	6501	29.592844616389	1
55	6502	29.592844616389	2
55	6506	29.592890616389	1
55	6507	29.592890616389	0
55	6559	29.593574829374	1
55	6560	29.593574829374	2
55	6567	29.593822829374	1
55	6568	29.593822829374	0
55	6716	30.592844616389	1
55	6717	30.592844616389	2
55	6721	30.592890616389	1
55	6722	30.592890616389	0
55	6774	30.593314786268	1
55	6775	30.593314786268	2
55	6782	30.593562786268	1
55	6783	30.593562786268	0
55	6931	31.592844616389	1
55	6932	31.592844616389	2
55	6936	31.592890616389	1
55	6937	31.592890616389	0
55	6989	31.593854896198	1
55	6990	31.593854896198	2
55	6998	31.594102896198	1
55	6999	31.594102896198	0
55	7145	32.592844616389	1
55	7146	32.592844616389	2
55	7150	32.592890616389	1
55	7151	32.592890616389	0
55	7204	32.593334813619	1
55	7205	32.593334813619	2
55	7213	32.593582813619	1
55	7214	32.593582813619	0
55	7360	33.592844616389	1
55	7361	33.592844616389	2
55	7365	33.592890616389	1
55	7366	33.592890616389	0
55	7418	33.59331474385	1
55	7419	33.59331474385	2
55	7425	33.59356274385	1
55	7426	33.59356274385	0
55	7574	34.592844616389	1
55	7575	34.592844616389	2
55	7579	34.592890616389	1
55	7580	34.592890616389	0
55	7632	34.593574770025	1
55	7633	34.593574770025	2
55	7641	34.593822770025	1
55	7642	34.593822770025	0
55	7788	35.592844616389	1
55	7789	35.592844616389	2
55	7793	35.592890616389	1
55	7794	35.592890616389	0
55	7848	35.593874888052	1
55	7849	35.593874888052	2
55	7857	35.594122888052	1
55	7858	35.594122888052	0
55	8003	36.592844616389	1
55	8004	36.592844616389	2
55	8008	36.592890616389	1
55	8009	36.592890616389	0
55	8061	36.593474921232	1
55	8062	36.593474921232	2
55	8071	36.593722921232	1
55	8072	36.593722921232	0
55	8219	37.592844616389	1
55	8220	37.592844616389	2
55	8224	37.592890616389	1
55	8225	37.592890616389	0
55	8277	37.593794901789	1
55	8278	37.593794901789	2
55	8285	37.594042901789	1
55	8286	37.594042901789	0
55	8433	38.592844616389	1
55	8434	38.592844616389	2
55	8438	38.592890616389	1
55	8439	38.592890616389	0
55	8491	38.593854826038	1
55	8492	38.593854826038	2
55	8499	38.594102826038	1
55	8500	38.594102826038	0
55	8648	39.592844616389	1
55	8649	39.592844616389	2
55	8653	39.592890616389	1
55	8654	39.592890616389	0
55	8706	39.593314760278	1
55	8707	39.593314760278	2
55	8714	39.593562760278	1
55	8715	39.593562760278	0
55	8864	40.592844616389	1
55	8865	40.592844616389	2
55	8869	40.592890616389	1
55	8870	40.592890616389	0
55	8922	40.593654803071	1
55	8923	40.593654803071	2
55	8929	40.593902803071	1
55	8930	40.593902803071	0
56	207	0.593292635426	1
57	210	0.593292635426	64
57	277	0.594054673621	120
57	496	1.592890703099	120
57	715	2.592890747229	120
57	928	3.592890741561	120
57	1145	4.592890709241	120
57	1359	5.592890767349	120
57	1576	6.592890720392	120
57	1786	7.592890660166	120
57	2004	8.592890775996	120
57	2219	9.592890760982	120
57	2431	10.592890716705	120
57	2643	11.592890687164	120
57	2860	12.592890634236	120
57	3077	13.592890673786	120
57	3292	14.592890717806	120
57	3506	15.592890721185	120
57	3723	16.59289070976	120
57	3938	17.592890712546	120
57	4152	18.592890663506	120
57	4368	19.592890699967	120
57	4583	20.592890736382	120
57	4798	21.592890715801	120
57	5013	22.592890714341	120
57	5228	23.592890742197	120
57	5444	24.592890701167	120
57	5656	25.592890678919	120
57	5871	26.592890670148	120
57	6085	27.592890705229	120
57	6302	28.592890632584	120
57	6519	29.592890722883	120
57	6732	30.592890701315	120
57	6949	31.592890756278	120
57	7163	32.592890715024	120
57	7376	33.592890680132	120
57	7588	34.592890693179	120
57	7802	35.592890752194	120
57	8021	36.592890768781	120
57	8237	37.592890759101	120
57	8451	38.592890721221	120
57	8664	39.592890688327	120
57	8882	40.592890709744	120
58	223	0.593482635426	64
58	282	0.594064673621	14
58	302	0.594742673621	120
58	499	1.592900703099	14
58	519	1.593658703099	120
58	716	2.592900747229	14
58	736	2.593438747229	120
58	931	3.592900741561	14
58	951	3.593338741561	120
58	1146	4.592900709241	14
58	1166	4.593538709241	120
58	1360	5.592900767349	14
58	1380	5.593358767349	120
58	1577	6.592900720392	14
58	1597	6.593518720392	120
58	1791	7.592900660166	14
58	1811	7.593498660166	120
58	2005	8.592900775996	14
58	2025	8.593258775996	120
58	2220	9.592900760982	14
58	2241	9.593778760982	120
58	2434	10.592900716705	14
58	2455	10.593338716705	120
58	2648	11.592900687164	14
58	2669	11.593698687164	120
58	2865	12.592900634236	14
58	2885	12.593398634236	120
58	3080	13.592900673786	14
58	3100	13.593798673786	120
58	3295	14.592900717806	14
58	3315	14.593758717806	120
58	3509	15.592900721185	14
58	3529	15.593278721185	120
58	3724	16.59290070976	14
58	3744	16.59335870976	120
58	3939	17.592900712546	14
58	3959	17.593278712546	120
58	4153	18.592900663506	14
58	4173	18.593818663506	120
58	4369	19.592900699967	14
58	4389	19.593338699967	120
58	4584	20.592900736382	14
58	4604	20.593318736382	120
58	4799	21.592900715801	14
58	4819	21.593558715801	120
58	5014	22.592900714341	14
58	5035	22.593258714341	120
58	5229	23.592900742197	14
58	5250	23.593398742197	120
58	5445	24.592900701167	14
58	5465	24.593318701167	120
58	5659	25.592900678919	14
58	5679	25.593598678919	120
58	5876	26.592900670148	14
58	5896	26.593598670148	120
58	6090	27.592900705229	14
58	6110	27.593598705229	120
58	6305	28.592900632584	14
58	6325	28.593498632584	120
58	6520	29.592900722883	14
58	6540	29.593518722883	120
58	6735	30.592900701315	14
58	6755	30.593258701315	120
58	6950	31.592900756278	14
58	6970	31.593798756278	120
58	7164	32.592900715024	14
58	7185	32.593278715024	120
58	7379	33.592900680132	14
58	7399	33.593258680132	120
58	7593	34.592900693179	14
58	7613	34.593518693179	120
58	7807	35.592900752194	14
58	7829	35.593818752194	120
58	8022	36.592900768781	14
58	8042	36.593418768781	120
58	8238	37.592900759101	14
58	8258	37.593738759101	120
58	8452	38.592900721221	14
58	8472	38.593798721221	120
58	8667	39.592900688327	14
58	8687	39.593258688327	120
58	8883	40.592900709744	14
58	8903	40.593598709744	120
59	224	0.593482635426	1
59	225	0.593482635426	2
59	229	0.593520635426	1
59	230	0.593520635426	0
59	283	0.594064673621	1
59	284	0.594064673621	2
59	290	0.594312673621	1
59	291	0.594312673621	0
59	303	0.594742673621	1
59	304	0.594742673621	2
59	308	0.594788673621	1
59	309	0.594788673621	0
59	500	1.592900703099	1
59	501	1.592900703099	2
59	508	1.593148703099	1
59	509	1.593148703099	0
59	520	1.593658703099	1
59	521	1.593658703099	2
59	525	1.593704703099	1
59	526	1.593704703099	0
59	717	2.592900747229	1
59	718	2.592900747229	2
59	726	2.593148747229	1
59	727	2.593148747229	0
59	737	2.593438747229	1
59	738	2.593438747229	2
59	742	2.593484747229	1
59	743	2.593484747229	0
59	932	3.592900741561	1
59	933	3.592900741561	2
59	940	3.593148741561	1
59	941	3.593148741561	0
59	952	3.593338741561	1
59	953	3.593338741561	2
59	957	3.593384741561	1
59	958	3.593384741561	0
59	1147	4.592900709241	1
59	1148	4.592900709241	2
59	1156	4.593148709241	1
59	1157	4.593148709241	0
59	1167	4.593538709241	1
59	1168	4.593538709241	2
59	1172	4.593584709241	1
59	1173	4.593584709241	0
59	1361	5.592900767349	1
59	1362	5.592900767349	2
59	1370	5.593148767349	1
59	1371	5.593148767349	0
59	1381	5.593358767349	1
59	1382	5.593358767349	2
59	1386	5.593404767349	1
59	1387	5.593404767349	0
59	1578	6.592900720392	1
59	1579	6.592900720392	2
59	1587	6.593148720392	1
59	1588	6.593148720392	0
59	1598	6.593518720392	1
59	1599	6.593518720392	2
59	1603	6.593564720392	1
59	1604	6.593564720392	0
59	1792	7.592900660166	1
59	1793	7.592900660166	2
59	1799	7.593148660166	1
59	1800	7.593148660166	0
59	1812	7.593498660166	1
59	1813	7.593498660166	2
59	1817	7.593544660166	1
59	1818	7.593544660166	0
59	2006	8.592900775996	1
59	2007	8.592900775996	2
59	2015	8.593148775996	1
59	2016	8.593148775996	0
59	2026	8.593258775996	1
59	2027	8.593258775996	2
59	2031	8.593304775996	1
59	2032	8.593304775996	0
59	2221	9.592900760982	1
59	2222	9.592900760982	2
59	2231	9.593148760982	1
59	2232	9.593148760982	0
59	2242	9.593778760982	1
59	2243	9.593778760982	2
59	2247	9.593824760982	1
59	2248	9.593824760982	0
59	2435	10.592900716705	1
59	2436	10.592900716705	2
59	2444	10.593148716705	1
59	2445	10.593148716705	0
59	2456	10.593338716705	1
59	2457	10.593338716705	2
59	2461	10.593384716705	1
59	2462	10.593384716705	0
59	2649	11.592900687164	1
59	2650	11.592900687164	2
59	2657	11.593148687164	1
59	2658	11.593148687164	0
59	2670	11.593698687164	1
59	2671	11.593698687164	2
59	2675	11.593744687164	1
59	2676	11.593744687164	0
59	2866	12.592900634236	1
59	2867	12.592900634236	2
59	2873	12.593148634236	1
59	2874	12.593148634236	0
59	2886	12.593398634236	1
59	2887	12.593398634236	2
59	2891	12.593444634236	1
59	2892	12.593444634236	0
59	3081	13.592900673786	1
59	3082	13.592900673786	2
59	3089	13.593148673786	1
59	3090	13.593148673786	0
59	3101	13.593798673786	1
59	3102	13.593798673786	2
59	3106	13.593844673786	1
59	3107	13.593844673786	0
59	3296	14.592900717806	1
59	3297	14.592900717806	2
59	3304	14.593148717806	1
59	3305	14.593148717806	0
59	3316	14.593758717806	1
59	3317	14.593758717806	2
59	3321	14.593804717806	1
59	3322	14.593804717806	0
59	3510	15.592900721185	1
59	3511	15.592900721185	2
59	3518	15.593148721185	1
59	3519	15.593148721185	0
59	3530	15.593278721185	1
59	3531	15.593278721185	2
59	3535	15.593324721185	1
59	3536	15.593324721185	0
59	3725	16.59290070976	1
59	3726	16.59290070976	2
59	3734	16.59314870976	1
59	3735	16.59314870976	0
59	3745	16.59335870976	1
59	3746	16.59335870976	2
59	3750	16.59340470976	1
59	3751	16.59340470976	0
59	3940	17.592900712546	1
59	3941	17.592900712546	2
59	3949	17.593148712546	1
59	3950	17.593148712546	0
59	3960	17.593278712546	1
59	3961	17.593278712546	2
59	3965	17.593324712546	1
59	3966	17.593324712546	0
59	4154	18.592900663506	1
59	4155	18.592900663506	2
59	4163	18.593148663506	1
59	4164	18.593148663506	0
59	4174	18.593818663506	1
59	4175	18.593818663506	2
59	4179	18.593864663506	1
59	4180	18.593864663506	0
59	4370	19.592900699967	1
59	4371	19.592900699967	2
59	4379	19.593148699967	1
59	4380	19.593148699967	0
59	4390	19.593338699967	1
59	4391	19.593338699967	2
59	4395	19.593384699967	1
59	4396	19.593384699967	0
59	4585	20.592900736382	1
59	4586	20.592900736382	2
59	4594	20.593148736382	1
59	4595	20.593148736382	0
59	4605	20.593318736382	1
59	4606	20.593318736382	2
59	4610	20.593364736382	1
59	4611	20.593364736382	0
59	4800	21.592900715801	1
59	4801	21.592900715801	2
59	4809	21.593148715801	1
59	4810	21.593148715801	0
59	4820	21.593558715801	1
59	4821	21.593558715801	2
59	4825	21.593604715801	1
59	4826	21.593604715801	0
59	5015	22.592900714341	1
59	5016	22.592900714341	2
59	5024	22.593148714341	1
59	5025	22.593148714341	0
59	5036	22.593258714341	1
59	5037	22.593258714341	2
59	5041	22.593304714341	1
59	5042	22.593304714341	0
59	5230	23.592900742197	1
59	5231	23.592900742197	2
59	5239	23.593148742197	1
59	5240	23.593148742197	0
59	5251	23.593398742197	1
59	5252	23.593398742197	2
59	5256	23.593444742197	1
59	5257	23.593444742197	0
59	5446	24.592900701167	1
59	5447	24.592900701167	2
59	5455	24.593148701167	1
59	5456	24.593148701167	0
59	5466	24.593318701167	1
59	5467	24.593318701167	2
59	5471	24.593364701167	1
59	5472	24.593364701167	0
59	5660	25.592900678919	1
59	5661	25.592900678919	2
59	5668	25.593148678919	1
59	5669	25.593148678919	0
59	5680	25.593598678919	1
59	5681	25.593598678919	2
59	5685	25.593644678919	1
59	5686	25.593644678919	0
59	5877	26.592900670148	1
59	5878	26.592900670148	2
59	5884	26.593148670148	1
59	5885	26.593148670148	0
59	5897	26.593598670148	1
59	5898	26.593598670148	2
59	5902	26.593644670148	1
59	5903	26.593644670148	0
59	6091	27.592900705229	1
59	6092	27.592900705229	2
59	6098	27.593148705229	1
59	6099	27.593148705229	0
59	6111	27.593598705229	1
59	6112	27.593598705229	2
59	6116	27.593644705229	1
59	6117	27.593644705229	0
59	6306	28.592900632584	1
59	6307	28.592900632584	2
59	6314	28.593148632584	1
59	6315	28.593148632584	0
59	6326	28.593498632584	1
59	6327	28.593498632584	2
59	6331	28.593544632584	1
59	6332	28.593544632584	0
59	6521	29.592900722883	1
59	6522	29.592900722883	2
59	6530	29.593148722883	1
59	6531	29.593148722883	0
59	6541	29.593518722883	1
59	6542	29.593518722883	2
59	6546	29.593564722883	1
59	6547	29.593564722883	0
59	6736	30.592900701315	1
59	6737	30.592900701315	2
59	6744	30.593148701315	1
59	6745	30.593148701315	0
59	6756	30.593258701315	1
59	6757	30.593258701315	2
59	6761	30.593304701315	1
59	6762	30.593304701315	0
59	6951	31.592900756278	1
59	6952	31.592900756278	2
59	6960	31.593148756278	1
59	6961	31.593148756278	0
59	6971	31.593798756278	1
59	6972	31.593798756278	2
59	6976	31.593844756278	1
59	6977	31.593844756278	0
59	7165	32.592900715024	1
59	7166	32.592900715024	2
59	7174	32.593148715024	1
59	7175	32.593148715024	0
59	7186	32.593278715024	1
59	7187	32.593278715024	2
59	7191	32.593324715024	1
59	7192	32.593324715024	0
59	7380	33.592900680132	1
59	7381	33.592900680132	2
59	7388	33.593148680132	1
59	7389	33.593148680132	0
59	7400	33.593258680132	1
59	7401	33.593258680132	2
59	7405	33.593304680132	1
59	7406	33.593304680132	0
59	7594	34.592900693179	1
59	7595	34.592900693179	2
59	7601	34.593148693179	1
59	7602	34.593148693179	0
59	7614	34.593518693179	1
59	7615	34.593518693179	2
59	7619	34.593564693179	1
59	7620	34.593564693179	0
59	7808	35.592900752194	1
59	7809	35.592900752194	2
59	7815	35.593148752194	1
59	7816	35.593148752194	0
59	7830	35.593818752194	1
59	7831	35.593818752194	2
59	7835	35.593864752194	1
59	7836	35.593864752194	0
59	8023	36.592900768781	1
59	8024	36.592900768781	2
59	8032	36.593148768781	1
59	8033	36.593148768781	0
59	8043	36.593418768781	1
59	8044	36.593418768781	2
59	8048	36.593464768781	1
59	8049	36.593464768781	0
59	8239	37.592900759101	1
59	8240	37.592900759101	2
59	8248	37.593148759101	1
59	8249	37.593148759101	0
59	8259	37.593738759101	1
59	8260	37.593738759101	2
59	8264	37.593784759101	1
59	8265	37.593784759101	0
59	8453	38.592900721221	1
59	8454	38.592900721221	2
59	8462	38.593148721221	1
59	8463	38.593148721221	0
59	8473	38.593798721221	1
59	8474	38.593798721221	2
59	8478	38.593844721221	1
59	8479	38.593844721221	0
59	8668	39.592900688327	1
59	8669	39.592900688327	2
59	8676	39.593148688327	1
59	8677	39.593148688327	0
59	8688	39.593258688327	1
59	8689	39.593258688327	2
59	8693	39.593304688327	1
59	8694	39.593304688327	0
59	8884	40.592900709744	1
59	8885	40.592900709744	2
59	8893	40.593148709744	1
59	8894	40.593148709744	0
59	8904	40.593598709744	1
59	8905	40.593598709744	2
59	8909	40.593644709744	1
59	8910	40.593644709744	0
60	315	0.594788692785	0
60	534	1.593704789864	1
60	753	2.593484878119	2
60	968	3.593384866681	3
60	1181	4.593584802124	4
60	1395	5.593404918345	5
60	1610	6.593564824287	6
60	1824	7.593544704021	7
60	2040	8.593304935626	8
60	2258	9.593824905477	9
60	2472	10.593384817006	10
60	2684	11.593744757915	11
60	2898	12.593444652047	12
60	3115	13.593844731227	13
60	3332	14.593804819263	14
60	3544	15.593324825983	15
60	3759	16.593404803126	16
60	3974	17.593324808663	17
60	4186	18.593864710661	18
60	4402	19.593384783564	19
60	4621	20.593364856363	20
60	4832	21.593604815194	21
60	5048	22.593304812304	22
60	5267	23.593444868005	23
60	5482	24.593364785928	24
60	5692	25.593644741446	25
60	5909	26.593644723894	26
60	6123	27.593644794104	27
60	6340	28.593544648903	28
60	6555	29.593564829374	29
60	6770	30.593304786268	30
60	6987	31.593844896198	31
60	7202	32.593324813619	32
60	7412	33.59330474385	33
60	7628	34.593564770025	34
60	7846	35.593864888052	35
60	8059	36.593464921232	36
60	8273	37.593784901789	37
60	8487	38.593844826038	38
60	8702	39.593304760278	39
60	8916	40.593644803071	40
61	315	0.594788692785	0.001944076396
61	534	1.593704789864	0.000860173475
61	753	2.593484878119	0.00064026173
61	968	3.593384866681	0.000540250292
61	1181	4.593584802124	0.000740185735
61	1395	5.593404918345	0.000560301956
61	1610	6.593564824287	0.000720207898
61	1824	7.593544704021	0.000700087632
61	2040	8.593304935626	0.000460319237
61	2258	9.593824905477	0.000980289088
61	2472	10.593384817006	0.000540200617
61	2684	11.593744757915	0.000900141526
61	2898	12.593444652047	0.000600035658
61	3115	13.593844731227	0.001000114838
61	3332	14.593804819263	0.000960202874
61	3544	15.593324825983	0.000480209594
61	3759	16.593404803126	0.000560186737
61	3974	17.593324808663	0.000480192274
61	4186	18.593864710661	0.001020094272
61	4402	19.593384783564	0.000540167175
61	4621	20.593364856363	0.000520239974
61	4832	21.593604815194	0.000760198805
61	5048	22.593304812304	0.000460195915
61	5267	23.593444868005	0.000600251616
61	5482	24.593364785928	0.000520169539
61	5692	25.593644741446	0.000800125057
61	5909	26.593644723894	0.000800107505
61	6123	27.593644794104	0.000800177715
61	6340	28.593544648903	0.000700032514
61	6555	29.593564829374	0.000720212985
61	6770	30.593304786268	0.000460169879
61	6987	31.593844896198	0.001000279809
61	7202	32.593324813619	0.00048019723
61	7412	33.59330474385	0.000460127461
61	7628	34.593564770025	0.000720153636
61	7846	35.593864888052	0.001020271663
61	8059	36.593464921232	0.000620304843
61	8273	37.593784901789	0.0009402854
61	8487	38.593844826038	0.001000209649
61	8702	39.593304760278	0.000460143889
61	8916	40.593644803071	0.000800186682

