version 2
run NonSynchronized-0-20171113-14:33:26-3056
attr configname NonSynchronized
attr datetime 20171113-14:33:26
attr experiment NonSynchronized
attr inifile omnetpp.ini
attr iterationvars ""
attr iterationvarsf ""
attr measurement ""
attr network UsingCSMACAwithRTS
attr processid 3056
attr repetition 0
attr replication #0
attr resultdir results
attr runnumber 0
attr seedset 0
param **.node[*].udpApp[0].startTime "uniform(20ms, 40ms)"
param **.nodeCount 4
param **.constraintAreaMinX 0m
param **.constraintAreaMinY 0m
param **.constraintAreaMinZ 0m
param **.constraintAreaMaxX 600m
param **.constraintAreaMaxY 400m
param **.constraintAreaMaxZ 0m
param **.node[*].udpApp[*].sendInterval 20ms

vector 0 UsingCSMACAwithRTS.node[0].wlan[0].radio radioMode:vector ETV
attr interpolationmode sample-hold
attr source radioModeChanged
attr title "Radio mode, vector"
vector 1 UsingCSMACAwithRTS.node[0].wlan[0].radio radioChannel:vector ETV
attr interpolationmode sample-hold
attr source radioChannelChanged
attr title "Radio channel, vector"
vector 2 UsingCSMACAwithRTS.node[1].wlan[0].radio radioMode:vector ETV
attr interpolationmode sample-hold
attr source radioModeChanged
attr title "Radio mode, vector"
vector 3 UsingCSMACAwithRTS.node[1].wlan[0].radio radioChannel:vector ETV
attr interpolationmode sample-hold
attr source radioChannelChanged
attr title "Radio channel, vector"
vector 4 UsingCSMACAwithRTS.node[2].wlan[0].radio radioMode:vector ETV
attr interpolationmode sample-hold
attr source radioModeChanged
attr title "Radio mode, vector"
vector 5 UsingCSMACAwithRTS.node[2].wlan[0].radio radioChannel:vector ETV
attr interpolationmode sample-hold
attr source radioChannelChanged
attr title "Radio channel, vector"
vector 6 UsingCSMACAwithRTS.node[3].wlan[0].radio radioMode:vector ETV
attr interpolationmode sample-hold
attr source radioModeChanged
attr title "Radio mode, vector"
vector 7 UsingCSMACAwithRTS.node[3].wlan[0].radio radioChannel:vector ETV
attr interpolationmode sample-hold
attr source radioChannelChanged
attr title "Radio channel, vector"
vector 8 UsingCSMACAwithRTS.node[0].wlan[0].radio receptionState:vector ETV
attr interpolationmode sample-hold
attr source receptionStateChanged
attr title "Radio reception state, vector"
vector 9 UsingCSMACAwithRTS.node[1].wlan[0].radio receptionState:vector ETV
attr interpolationmode sample-hold
attr source receptionStateChanged
attr title "Radio reception state, vector"
vector 10 UsingCSMACAwithRTS.node[2].wlan[0].radio receptionState:vector ETV
attr interpolationmode sample-hold
attr source receptionStateChanged
attr title "Radio reception state, vector"
vector 11 UsingCSMACAwithRTS.node[3].wlan[0].radio receptionState:vector ETV
attr interpolationmode sample-hold
attr source receptionStateChanged
attr title "Radio reception state, vector"
vector 12 UsingCSMACAwithRTS.node[0].wlan[0].mac.dcf.channelAccess.contention state:vector ETV
attr interpolationmode none
attr source stateChanged
attr title "contention state, vector"
vector 13 UsingCSMACAwithRTS.node[0].wlan[0].mac.hcf.edca.edcaf[0].contention state:vector ETV
attr interpolationmode none
attr source stateChanged
attr title "contention state, vector"
vector 14 UsingCSMACAwithRTS.node[0].wlan[0].mac.hcf.edca.edcaf[1].contention state:vector ETV
attr interpolationmode none
attr source stateChanged
attr title "contention state, vector"
vector 15 UsingCSMACAwithRTS.node[0].wlan[0].mac.hcf.edca.edcaf[2].contention state:vector ETV
attr interpolationmode none
attr source stateChanged
attr title "contention state, vector"
vector 16 UsingCSMACAwithRTS.node[0].wlan[0].mac.hcf.edca.edcaf[3].contention state:vector ETV
attr interpolationmode none
attr source stateChanged
attr title "contention state, vector"
vector 17 UsingCSMACAwithRTS.node[1].wlan[0].mac.dcf.channelAccess.contention state:vector ETV
attr interpolationmode none
attr source stateChanged
attr title "contention state, vector"
vector 18 UsingCSMACAwithRTS.node[1].wlan[0].mac.hcf.edca.edcaf[0].contention state:vector ETV
attr interpolationmode none
attr source stateChanged
attr title "contention state, vector"
vector 19 UsingCSMACAwithRTS.node[1].wlan[0].mac.hcf.edca.edcaf[1].contention state:vector ETV
attr interpolationmode none
attr source stateChanged
attr title "contention state, vector"
vector 20 UsingCSMACAwithRTS.node[1].wlan[0].mac.hcf.edca.edcaf[2].contention state:vector ETV
attr interpolationmode none
attr source stateChanged
attr title "contention state, vector"
vector 21 UsingCSMACAwithRTS.node[1].wlan[0].mac.hcf.edca.edcaf[3].contention state:vector ETV
attr interpolationmode none
attr source stateChanged
attr title "contention state, vector"
vector 22 UsingCSMACAwithRTS.node[2].wlan[0].mac.dcf.channelAccess.contention state:vector ETV
attr interpolationmode none
attr source stateChanged
attr title "contention state, vector"
vector 23 UsingCSMACAwithRTS.node[2].wlan[0].mac.hcf.edca.edcaf[0].contention state:vector ETV
attr interpolationmode none
attr source stateChanged
attr title "contention state, vector"
vector 24 UsingCSMACAwithRTS.node[2].wlan[0].mac.hcf.edca.edcaf[1].contention state:vector ETV
attr interpolationmode none
attr source stateChanged
attr title "contention state, vector"
vector 25 UsingCSMACAwithRTS.node[2].wlan[0].mac.hcf.edca.edcaf[2].contention state:vector ETV
attr interpolationmode none
attr source stateChanged
attr title "contention state, vector"
vector 26 UsingCSMACAwithRTS.node[2].wlan[0].mac.hcf.edca.edcaf[3].contention state:vector ETV
attr interpolationmode none
attr source stateChanged
attr title "contention state, vector"
vector 27 UsingCSMACAwithRTS.node[3].wlan[0].mac.dcf.channelAccess.contention state:vector ETV
attr interpolationmode none
attr source stateChanged
attr title "contention state, vector"
vector 28 UsingCSMACAwithRTS.node[3].wlan[0].mac.hcf.edca.edcaf[0].contention state:vector ETV
attr interpolationmode none
attr source stateChanged
attr title "contention state, vector"
vector 29 UsingCSMACAwithRTS.node[3].wlan[0].mac.hcf.edca.edcaf[1].contention state:vector ETV
attr interpolationmode none
attr source stateChanged
attr title "contention state, vector"
vector 30 UsingCSMACAwithRTS.node[3].wlan[0].mac.hcf.edca.edcaf[2].contention state:vector ETV
attr interpolationmode none
attr source stateChanged
attr title "contention state, vector"
vector 31 UsingCSMACAwithRTS.node[3].wlan[0].mac.hcf.edca.edcaf[3].contention state:vector ETV
attr interpolationmode none
attr source stateChanged
attr title "contention state, vector"
vector 32 UsingCSMACAwithRTS.node[3].udpApp[0] sentPk:vector(packetBytes) ETV
attr interpolationmode none
attr source sentPk
attr title "packets sent, vector(packetBytes)"
vector 33 UsingCSMACAwithRTS.node[3].udp sentPk:vector(packetBytes) ETV
attr interpolationmode none
attr source sentPk
attr title "packets sent, vector(packetBytes)"
vector 34 UsingCSMACAwithRTS.node[3].lo0.lo rcvdPkFromHL:vector(packetBytes) ETV
attr interpolationmode none
attr source packetReceivedFromUpper
attr title "packets received from higher layer, vector(packetBytes)"
vector 35 UsingCSMACAwithRTS.node[3].lo0.lo passedUpPk:vector(packetBytes) ETV
attr interpolationmode none
attr source packetSentToUpper
attr title "packets passed to higher layer, vector(packetBytes)"
vector 36 UsingCSMACAwithRTS.node[3].wlan[0].mac rcvdPkFromHL:vector(packetBytes) ETV
attr interpolationmode none
attr source packetReceivedFromUpper
attr title "packets received from higher layer, vector(packetBytes)"
vector 37 UsingCSMACAwithRTS.node[3].udp rcvdPk:vector(packetBytes) ETV
attr interpolationmode none
attr source rcvdPk
attr title "packets received, vector(packetBytes)"
vector 38 UsingCSMACAwithRTS.node[3].udp passedUpPk:vector(count) ETV
attr interpolationmode none
attr title "packets passed up, vector(count)"
vector 39 UsingCSMACAwithRTS.node[3].udpApp[0] rcvdPk:vector(packetBytes) ETV
attr interpolationmode none
attr source rcvdPk
attr title "packets received, vector(packetBytes)"
vector 40 UsingCSMACAwithRTS.node[3].udpApp[0] rcvdPkLifetime:vector ETV
attr interpolationmode none
attr source messageAge(rcvdPk)
attr title "received packet lifetime, vector"
attr unit s
vector 41 UsingCSMACAwithRTS.node[3].udpApp[0] rcvdPkSeqNo:vector ETV
attr interpolationmode none
attr source appPkSeqNo(rcvdPk)
attr title "received packet sequence number, vector"
vector 42 UsingCSMACAwithRTS.node[3].wlan[0].mac sentDownPk:vector(packetBytes) ETV
attr interpolationmode none
attr source packetSentToLower
attr title "packets sent to lower layer, vector(packetBytes)"
vector 43 UsingCSMACAwithRTS.node[3].wlan[0].radio transmissionState:vector ETV
attr interpolationmode sample-hold
attr source transmissionStateChanged
attr title "Radio transmission state, vector"
vector 44 UsingCSMACAwithRTS.node[1].wlan[0].mac rcvdPkFromLL:vector(packetBytes) ETV
attr interpolationmode none
attr source packetReceivedFromLower
attr title "packets received from lower layer, vector(packetBytes)"
vector 45 UsingCSMACAwithRTS.node[1].wlan[0].mac passedUpPk:vector(packetBytes) ETV
attr interpolationmode none
attr source packetSentToUpper
attr title "packets passed to higher layer, vector(packetBytes)"
vector 46 UsingCSMACAwithRTS.node[1].udp rcvdPk:vector(packetBytes) ETV
attr interpolationmode none
attr source rcvdPk
attr title "packets received, vector(packetBytes)"
vector 47 UsingCSMACAwithRTS.node[1].udp droppedPkWrongPort:vector(count) ETV
attr interpolationmode none
attr title "packets dropped (wrong port), vector(count)"
vector 48 UsingCSMACAwithRTS.node[2].wlan[0].mac rcvdPkFromLL:vector(packetBytes) ETV
attr interpolationmode none
attr source packetReceivedFromLower
attr title "packets received from lower layer, vector(packetBytes)"
vector 49 UsingCSMACAwithRTS.node[2].wlan[0].mac passedUpPk:vector(packetBytes) ETV
attr interpolationmode none
attr source packetSentToUpper
attr title "packets passed to higher layer, vector(packetBytes)"
vector 50 UsingCSMACAwithRTS.node[2].udp rcvdPk:vector(packetBytes) ETV
attr interpolationmode none
attr source rcvdPk
attr title "packets received, vector(packetBytes)"
vector 51 UsingCSMACAwithRTS.node[2].udp droppedPkWrongPort:vector(count) ETV
attr interpolationmode none
attr title "packets dropped (wrong port), vector(count)"
vector 52 UsingCSMACAwithRTS.node[0].wlan[0].mac rcvdPkFromLL:vector(packetBytes) ETV
attr interpolationmode none
attr source packetReceivedFromLower
attr title "packets received from lower layer, vector(packetBytes)"
vector 53 UsingCSMACAwithRTS.node[0].wlan[0].mac passedUpPk:vector(packetBytes) ETV
attr interpolationmode none
attr source packetSentToUpper
attr title "packets passed to higher layer, vector(packetBytes)"
vector 54 UsingCSMACAwithRTS.node[0].udp rcvdPk:vector(packetBytes) ETV
attr interpolationmode none
attr source rcvdPk
attr title "packets received, vector(packetBytes)"
vector 55 UsingCSMACAwithRTS.node[0].udp droppedPkWrongPort:vector(count) ETV
attr interpolationmode none
attr title "packets dropped (wrong port), vector(count)"
vector 56 UsingCSMACAwithRTS.node[2].udpApp[0] sentPk:vector(packetBytes) ETV
attr interpolationmode none
attr source sentPk
attr title "packets sent, vector(packetBytes)"
vector 57 UsingCSMACAwithRTS.node[2].udp sentPk:vector(packetBytes) ETV
attr interpolationmode none
attr source sentPk
attr title "packets sent, vector(packetBytes)"
vector 58 UsingCSMACAwithRTS.node[2].lo0.lo rcvdPkFromHL:vector(packetBytes) ETV
attr interpolationmode none
attr source packetReceivedFromUpper
attr title "packets received from higher layer, vector(packetBytes)"
vector 59 UsingCSMACAwithRTS.node[2].lo0.lo passedUpPk:vector(packetBytes) ETV
attr interpolationmode none
attr source packetSentToUpper
attr title "packets passed to higher layer, vector(packetBytes)"
vector 60 UsingCSMACAwithRTS.node[2].wlan[0].mac rcvdPkFromHL:vector(packetBytes) ETV
attr interpolationmode none
attr source packetReceivedFromUpper
attr title "packets received from higher layer, vector(packetBytes)"
vector 61 UsingCSMACAwithRTS.node[2].udp passedUpPk:vector(count) ETV
attr interpolationmode none
attr title "packets passed up, vector(count)"
vector 62 UsingCSMACAwithRTS.node[2].udpApp[0] rcvdPk:vector(packetBytes) ETV
attr interpolationmode none
attr source rcvdPk
attr title "packets received, vector(packetBytes)"
vector 63 UsingCSMACAwithRTS.node[2].udpApp[0] rcvdPkLifetime:vector ETV
attr interpolationmode none
attr source messageAge(rcvdPk)
attr title "received packet lifetime, vector"
attr unit s
vector 64 UsingCSMACAwithRTS.node[2].udpApp[0] rcvdPkSeqNo:vector ETV
attr interpolationmode none
attr source appPkSeqNo(rcvdPk)
attr title "received packet sequence number, vector"
vector 65 UsingCSMACAwithRTS.node[2].wlan[0].mac sentDownPk:vector(packetBytes) ETV
attr interpolationmode none
attr source packetSentToLower
attr title "packets sent to lower layer, vector(packetBytes)"
vector 66 UsingCSMACAwithRTS.node[2].wlan[0].radio transmissionState:vector ETV
attr interpolationmode sample-hold
attr source transmissionStateChanged
attr title "Radio transmission state, vector"
vector 67 UsingCSMACAwithRTS.node[3].wlan[0].mac rcvdPkFromLL:vector(packetBytes) ETV
attr interpolationmode none
attr source packetReceivedFromLower
attr title "packets received from lower layer, vector(packetBytes)"
vector 68 UsingCSMACAwithRTS.node[3].wlan[0].mac passedUpPk:vector(packetBytes) ETV
attr interpolationmode none
attr source packetSentToUpper
attr title "packets passed to higher layer, vector(packetBytes)"
vector 69 UsingCSMACAwithRTS.node[0].udpApp[0] sentPk:vector(packetBytes) ETV
attr interpolationmode none
attr source sentPk
attr title "packets sent, vector(packetBytes)"
vector 70 UsingCSMACAwithRTS.node[0].udp sentPk:vector(packetBytes) ETV
attr interpolationmode none
attr source sentPk
attr title "packets sent, vector(packetBytes)"
vector 71 UsingCSMACAwithRTS.node[0].lo0.lo rcvdPkFromHL:vector(packetBytes) ETV
attr interpolationmode none
attr source packetReceivedFromUpper
attr title "packets received from higher layer, vector(packetBytes)"
vector 72 UsingCSMACAwithRTS.node[0].lo0.lo passedUpPk:vector(packetBytes) ETV
attr interpolationmode none
attr source packetSentToUpper
attr title "packets passed to higher layer, vector(packetBytes)"
vector 73 UsingCSMACAwithRTS.node[0].wlan[0].mac rcvdPkFromHL:vector(packetBytes) ETV
attr interpolationmode none
attr source packetReceivedFromUpper
attr title "packets received from higher layer, vector(packetBytes)"
vector 74 UsingCSMACAwithRTS.node[0].udp passedUpPk:vector(count) ETV
attr interpolationmode none
attr title "packets passed up, vector(count)"
vector 75 UsingCSMACAwithRTS.node[0].udpApp[0] rcvdPk:vector(packetBytes) ETV
attr interpolationmode none
attr source rcvdPk
attr title "packets received, vector(packetBytes)"
vector 76 UsingCSMACAwithRTS.node[0].udpApp[0] rcvdPkLifetime:vector ETV
attr interpolationmode none
attr source messageAge(rcvdPk)
attr title "received packet lifetime, vector"
attr unit s
vector 77 UsingCSMACAwithRTS.node[0].udpApp[0] rcvdPkSeqNo:vector ETV
attr interpolationmode none
attr source appPkSeqNo(rcvdPk)
attr title "received packet sequence number, vector"
vector 78 UsingCSMACAwithRTS.node[0].wlan[0].mac sentDownPk:vector(packetBytes) ETV
attr interpolationmode none
attr source packetSentToLower
attr title "packets sent to lower layer, vector(packetBytes)"
vector 79 UsingCSMACAwithRTS.node[0].wlan[0].radio transmissionState:vector ETV
attr interpolationmode sample-hold
attr source transmissionStateChanged
attr title "Radio transmission state, vector"
vector 80 UsingCSMACAwithRTS.node[1].udpApp[0] sentPk:vector(packetBytes) ETV
attr interpolationmode none
attr source sentPk
attr title "packets sent, vector(packetBytes)"
vector 81 UsingCSMACAwithRTS.node[1].udp sentPk:vector(packetBytes) ETV
attr interpolationmode none
attr source sentPk
attr title "packets sent, vector(packetBytes)"
vector 82 UsingCSMACAwithRTS.node[1].lo0.lo rcvdPkFromHL:vector(packetBytes) ETV
attr interpolationmode none
attr source packetReceivedFromUpper
attr title "packets received from higher layer, vector(packetBytes)"
vector 83 UsingCSMACAwithRTS.node[1].lo0.lo passedUpPk:vector(packetBytes) ETV
attr interpolationmode none
attr source packetSentToUpper
attr title "packets passed to higher layer, vector(packetBytes)"
vector 84 UsingCSMACAwithRTS.node[1].wlan[0].mac rcvdPkFromHL:vector(packetBytes) ETV
attr interpolationmode none
attr source packetReceivedFromUpper
attr title "packets received from higher layer, vector(packetBytes)"
vector 85 UsingCSMACAwithRTS.node[1].udp passedUpPk:vector(count) ETV
attr interpolationmode none
attr title "packets passed up, vector(count)"
vector 86 UsingCSMACAwithRTS.node[1].udpApp[0] rcvdPk:vector(packetBytes) ETV
attr interpolationmode none
attr source rcvdPk
attr title "packets received, vector(packetBytes)"
vector 87 UsingCSMACAwithRTS.node[1].udpApp[0] rcvdPkLifetime:vector ETV
attr interpolationmode none
attr source messageAge(rcvdPk)
attr title "received packet lifetime, vector"
attr unit s
vector 88 UsingCSMACAwithRTS.node[1].udpApp[0] rcvdPkSeqNo:vector ETV
attr interpolationmode none
attr source appPkSeqNo(rcvdPk)
attr title "received packet sequence number, vector"
vector 89 UsingCSMACAwithRTS.node[1].wlan[0].mac sentDownPk:vector(packetBytes) ETV
attr interpolationmode none
attr source packetSentToLower
attr title "packets sent to lower layer, vector(packetBytes)"
vector 90 UsingCSMACAwithRTS.node[1].wlan[0].radio transmissionState:vector ETV
attr interpolationmode sample-hold
attr source transmissionStateChanged
attr title "Radio transmission state, vector"
vector 91 UsingCSMACAwithRTS.node[3].udpApp[0] throughput:vector ETV
attr source throughput(rcvdPk)
attr title "throughput, vector"
attr unit bps
vector 92 UsingCSMACAwithRTS.node[1].udpApp[0] throughput:vector ETV
attr source throughput(rcvdPk)
attr title "throughput, vector"
attr unit bps
vector 93 UsingCSMACAwithRTS.node[2].udpApp[0] throughput:vector ETV
attr source throughput(rcvdPk)
attr title "throughput, vector"
attr unit bps
vector 94 UsingCSMACAwithRTS.node[0].udpApp[0] throughput:vector ETV
attr source throughput(rcvdPk)
attr title "throughput, vector"
attr unit bps
0	0	0	0
0	0	0	2
0	101	0.036885314882	3
0	118	0.037197314882	2
0	255	0.056885314882	3
0	270	0.057197314882	2
0	407	0.076885314882	3
0	422	0.077197314882	2
0	559	0.096885314882	3
0	574	0.097197314882	2
0	711	0.116885314882	3
0	726	0.117197314882	2
0	863	0.136885314882	3
0	878	0.137197314882	2
0	1015	0.156885314882	3
0	1030	0.157197314882	2
1	0	0	0
2	0	0	0
2	0	0	2
2	140	0.037348508925	3
2	146	0.037660508925	2
2	292	0.057588508925	3
2	298	0.057900508925	2
2	444	0.077268508925	3
2	450	0.077580508925	2
2	596	0.097708508925	3
2	603	0.098020508925	2
2	748	0.117248508925	3
2	754	0.117560508925	2
2	900	0.137588508925	3
2	906	0.137900508925	2
2	1052	0.157268508925	3
2	1058	0.157580508925	2
3	0	0	0
4	0	0	0
4	0	0	2
4	63	0.027687634164	3
4	69	0.027999634164	2
4	217	0.047687634164	3
4	223	0.047999634164	2
4	368	0.067687634164	3
4	375	0.067999634164	2
4	521	0.087687634164	3
4	527	0.087999634164	2
4	672	0.107687634164	3
4	678	0.107999634164	2
4	825	0.127687634164	3
4	831	0.127999634164	2
4	976	0.147687634164	3
4	983	0.147999634164	2
5	0	0	0
6	0	0	0
6	0	0	2
6	27	0.021134259515	3
6	33	0.021446259515	2
6	178	0.041134259515	3
6	184	0.041446259515	2
6	330	0.061134259515	3
6	336	0.061446259515	2
6	482	0.081134259515	3
6	488	0.081446259515	2
6	634	0.101134259515	3
6	640	0.101446259515	2
6	786	0.121134259515	3
6	792	0.121446259515	2
6	938	0.141134259515	3
6	944	0.141446259515	2
6	1090	0.161134259515	3
6	1096	0.161446259515	2
7	0	0	0
8	0	0	1
8	31	0.021135696311	3
8	44	0.021447696311	1
8	67	0.027688547213	3
8	81	0.028000547213	1
8	101	0.036885314882	0
8	118	0.037197314882	1
8	144	0.037349702968	3
8	159	0.037661702968	1
8	182	0.041135696311	3
8	197	0.041447696311	1
8	221	0.047688547213	3
8	236	0.048000547213	1
8	255	0.056885314882	0
8	270	0.057197314882	1
8	296	0.057589702968	3
8	311	0.057901702968	1
8	334	0.061135696311	3
8	349	0.061447696311	1
8	372	0.067688547213	3
8	388	0.068000547213	1
8	407	0.076885314882	0
8	422	0.077197314882	1
8	448	0.077269702968	3
8	463	0.077581702968	1
8	486	0.081135696311	3
8	501	0.081447696311	1
8	525	0.087688547213	3
8	540	0.088000547213	1
8	559	0.096885314882	0
8	574	0.097197314882	1
8	600	0.097709702968	3
8	616	0.098021702968	1
8	638	0.101135696311	3
8	653	0.101447696311	1
8	676	0.107688547213	3
8	691	0.108000547213	1
8	711	0.116885314882	0
8	726	0.117197314882	1
8	752	0.117249702968	3
8	767	0.117561702968	1
8	790	0.121135696311	3
8	805	0.121447696311	1
8	829	0.127688547213	3
8	844	0.128000547213	1
8	863	0.136885314882	0
8	878	0.137197314882	1
8	904	0.137589702968	3
8	919	0.137901702968	1
8	942	0.141135696311	3
8	957	0.141447696311	1
8	980	0.147688547213	3
8	996	0.148000547213	1
8	1015	0.156885314882	0
8	1030	0.157197314882	1
8	1056	0.157269702968	3
8	1071	0.157581702968	1
8	1094	0.161135696311	3
9	0	0	1
9	29	0.021134506017	3
9	34	0.021446506017	1
9	65	0.027688062566	3
9	70	0.028000062566	1
9	104	0.036886508925	3
9	125	0.037198508925	1
9	140	0.037348508925	0
9	146	0.037660508925	1
9	180	0.041134506017	3
9	185	0.041446506017	1
9	219	0.047688062566	3
9	224	0.048000062566	1
9	258	0.056886508925	3
9	277	0.057198508925	1
9	292	0.057588508925	0
9	298	0.057900508925	1
9	332	0.061134506017	3
9	337	0.061446506017	1
9	370	0.067688062566	3
9	376	0.068000062566	1
9	410	0.076886508925	3
9	429	0.077198508925	1
9	444	0.077268508925	0
9	450	0.077580508925	1
9	484	0.081134506017	3
9	489	0.081446506017	1
9	523	0.087688062566	3
9	528	0.088000062566	1
9	562	0.096886508925	3
9	581	0.097198508925	1
9	596	0.097708508925	0
9	603	0.098020508925	1
9	636	0.101134506017	3
9	641	0.101446506017	1
9	674	0.107688062566	3
9	679	0.108000062566	1
9	714	0.116886508925	3
9	733	0.117198508925	1
9	748	0.117248508925	0
9	754	0.117560508925	1
9	788	0.121134506017	3
9	793	0.121446506017	1
9	827	0.127688062566	3
9	832	0.128000062566	1
9	866	0.136886508925	3
9	885	0.137198508925	1
9	900	0.137588508925	0
9	906	0.137900508925	1
9	940	0.141134506017	3
9	945	0.141446506017	1
9	978	0.147688062566	3
9	984	0.148000062566	1
9	1018	0.156886508925	3
9	1037	0.157198508925	1
9	1052	0.157268508925	0
9	1058	0.157580508925	1
9	1092	0.161134506017	3
9	1097	0.161446506017	1
10	0	0	1
10	30	0.021134913519	3
10	39	0.021446913519	1
10	63	0.027687634164	0
10	69	0.027999634164	1
10	103	0.036886227931	3
10	119	0.037198227931	1
10	143	0.037348937327	3
10	153	0.037660937327	1
10	181	0.041134913519	3
10	191	0.041446913519	1
10	217	0.047687634164	0
10	223	0.047999634164	1
10	257	0.056886227931	3
10	271	0.057198227931	1
10	295	0.057588937327	3
10	305	0.057900937327	1
10	333	0.061134913519	3
10	343	0.061446913519	1
10	368	0.067687634164	0
10	375	0.067999634164	1
10	409	0.076886227931	3
10	423	0.077198227931	1
10	447	0.077268937327	3
10	457	0.077580937327	1
10	485	0.081134913519	3
10	495	0.081446913519	1
10	521	0.087687634164	0
10	527	0.087999634164	1
10	561	0.096886227931	3
10	575	0.097198227931	1
10	599	0.097708937327	3
10	610	0.098020937327	1
10	637	0.101134913519	3
10	647	0.101446913519	1
10	672	0.107687634164	0
10	678	0.107999634164	1
10	713	0.116886227931	3
10	727	0.117198227931	1
10	751	0.117248937327	3
10	761	0.117560937327	1
10	789	0.121134913519	3
10	799	0.121446913519	1
10	825	0.127687634164	0
10	831	0.127999634164	1
10	865	0.136886227931	3
10	879	0.137198227931	1
10	903	0.137588937327	3
10	913	0.137900937327	1
10	941	0.141134913519	3
10	951	0.141446913519	1
10	976	0.147687634164	0
10	983	0.147999634164	1
10	1017	0.156886227931	3
10	1031	0.157198227931	1
10	1055	0.157268937327	3
10	1065	0.157580937327	1
10	1093	0.161134913519	3
10	1103	0.161446913519	1
11	0	0	1
11	27	0.021134259515	0
11	33	0.021446259515	1
11	66	0.027688288168	3
11	75	0.028000288168	1
11	105	0.036886751678	3
11	131	0.037198751678	1
11	142	0.037348755427	3
11	147	0.037660755427	1
11	178	0.041134259515	0
11	184	0.041446259515	1
11	220	0.047688288168	3
11	230	0.048000288168	1
11	259	0.056886751678	3
11	283	0.057198751678	1
11	294	0.057588755427	3
11	299	0.057900755427	1
11	330	0.061134259515	0
11	336	0.061446259515	1
11	371	0.067688288168	3
11	382	0.068000288168	1
11	411	0.076886751678	3
11	435	0.077198751678	1
11	446	0.077268755427	3
11	451	0.077580755427	1
11	482	0.081134259515	0
11	488	0.081446259515	1
11	524	0.087688288168	3
11	534	0.088000288168	1
11	563	0.096886751678	3
11	587	0.097198751678	1
11	598	0.097708755427	3
11	604	0.098020755427	1
11	634	0.101134259515	0
11	640	0.101446259515	1
11	675	0.107688288168	3
11	685	0.108000288168	1
11	715	0.116886751678	3
11	739	0.117198751678	1
11	750	0.117248755427	3
11	755	0.117560755427	1
11	786	0.121134259515	0
11	792	0.121446259515	1
11	828	0.127688288168	3
11	838	0.128000288168	1
11	867	0.136886751678	3
11	891	0.137198751678	1
11	902	0.137588755427	3
11	907	0.137900755427	1
11	938	0.141134259515	0
11	944	0.141446259515	1
11	979	0.147688288168	3
11	990	0.148000288168	1
11	1019	0.156886751678	3
11	1043	0.157198751678	1
11	1054	0.157268755427	3
11	1059	0.157580755427	1
11	1090	0.161134259515	0
11	1096	0.161446259515	1
12	0	0	0
12	0	0	0
12	31	0.021135696311	0
12	31	0.021135696311	0
12	44	0.021447696311	0
12	44	0.021447696311	0
12	67	0.027688547213	0
12	67	0.027688547213	0
12	81	0.028000547213	0
12	81	0.028000547213	0
12	95	0.036885314882	0
12	95	0.036885314882	2
12	98	0.036885314882	2
12	98	0.036885314882	0
12	101	0.036885314882	0
12	101	0.036885314882	0
12	118	0.037197314882	0
12	118	0.037197314882	0
12	144	0.037349702968	0
12	144	0.037349702968	0
12	159	0.037661702968	0
12	159	0.037661702968	0
12	182	0.041135696311	0
12	182	0.041135696311	0
12	197	0.041447696311	0
12	197	0.041447696311	0
12	221	0.047688547213	0
12	221	0.047688547213	0
12	236	0.048000547213	0
12	236	0.048000547213	0
12	249	0.056885314882	0
12	249	0.056885314882	2
12	252	0.056885314882	2
12	252	0.056885314882	0
12	255	0.056885314882	0
12	255	0.056885314882	0
12	270	0.057197314882	0
12	270	0.057197314882	0
12	296	0.057589702968	0
12	296	0.057589702968	0
12	311	0.057901702968	0
12	311	0.057901702968	0
12	334	0.061135696311	0
12	334	0.061135696311	0
12	349	0.061447696311	0
12	349	0.061447696311	0
12	372	0.067688547213	0
12	372	0.067688547213	0
12	388	0.068000547213	0
12	388	0.068000547213	0
12	401	0.076885314882	0
12	401	0.076885314882	2
12	404	0.076885314882	2
12	404	0.076885314882	0
12	407	0.076885314882	0
12	407	0.076885314882	0
12	422	0.077197314882	0
12	422	0.077197314882	0
12	448	0.077269702968	0
12	448	0.077269702968	0
12	463	0.077581702968	0
12	463	0.077581702968	0
12	486	0.081135696311	0
12	486	0.081135696311	0
12	501	0.081447696311	0
12	501	0.081447696311	0
12	525	0.087688547213	0
12	525	0.087688547213	0
12	540	0.088000547213	0
12	540	0.088000547213	0
12	553	0.096885314882	0
12	553	0.096885314882	2
12	556	0.096885314882	2
12	556	0.096885314882	0
12	559	0.096885314882	0
12	559	0.096885314882	0
12	574	0.097197314882	0
12	574	0.097197314882	0
12	600	0.097709702968	0
12	600	0.097709702968	0
12	616	0.098021702968	0
12	616	0.098021702968	0
12	638	0.101135696311	0
12	638	0.101135696311	0
12	653	0.101447696311	0
12	653	0.101447696311	0
12	676	0.107688547213	0
12	676	0.107688547213	0
12	691	0.108000547213	0
12	691	0.108000547213	0
12	705	0.116885314882	0
12	705	0.116885314882	2
12	708	0.116885314882	2
12	708	0.116885314882	0
12	711	0.116885314882	0
12	711	0.116885314882	0
12	726	0.117197314882	0
12	726	0.117197314882	0
12	752	0.117249702968	0
12	752	0.117249702968	0
12	767	0.117561702968	0
12	767	0.117561702968	0
12	790	0.121135696311	0
12	790	0.121135696311	0
12	805	0.121447696311	0
12	805	0.121447696311	0
12	829	0.127688547213	0
12	829	0.127688547213	0
12	844	0.128000547213	0
12	844	0.128000547213	0
12	857	0.136885314882	0
12	857	0.136885314882	2
12	860	0.136885314882	2
12	860	0.136885314882	0
12	863	0.136885314882	0
12	863	0.136885314882	0
12	878	0.137197314882	0
12	878	0.137197314882	0
12	904	0.137589702968	0
12	904	0.137589702968	0
12	919	0.137901702968	0
12	919	0.137901702968	0
12	942	0.141135696311	0
12	942	0.141135696311	0
12	957	0.141447696311	0
12	957	0.141447696311	0
12	980	0.147688547213	0
12	980	0.147688547213	0
12	996	0.148000547213	0
12	996	0.148000547213	0
12	1009	0.156885314882	0
12	1009	0.156885314882	2
12	1012	0.156885314882	2
12	1012	0.156885314882	0
12	1015	0.156885314882	0
12	1015	0.156885314882	0
12	1030	0.157197314882	0
12	1030	0.157197314882	0
12	1056	0.157269702968	0
12	1056	0.157269702968	0
12	1071	0.157581702968	0
12	1071	0.157581702968	0
12	1094	0.161135696311	0
12	1094	0.161135696311	0
13	0	0	0
13	0	0	0
13	31	0.021135696311	0
13	31	0.021135696311	0
13	44	0.021447696311	0
13	44	0.021447696311	0
13	67	0.027688547213	0
13	67	0.027688547213	0
13	81	0.028000547213	0
13	81	0.028000547213	0
13	101	0.036885314882	0
13	101	0.036885314882	0
13	118	0.037197314882	0
13	118	0.037197314882	0
13	144	0.037349702968	0
13	144	0.037349702968	0
13	159	0.037661702968	0
13	159	0.037661702968	0
13	182	0.041135696311	0
13	182	0.041135696311	0
13	197	0.041447696311	0
13	197	0.041447696311	0
13	221	0.047688547213	0
13	221	0.047688547213	0
13	236	0.048000547213	0
13	236	0.048000547213	0
13	255	0.056885314882	0
13	255	0.056885314882	0
13	270	0.057197314882	0
13	270	0.057197314882	0
13	296	0.057589702968	0
13	296	0.057589702968	0
13	311	0.057901702968	0
13	311	0.057901702968	0
13	334	0.061135696311	0
13	334	0.061135696311	0
13	349	0.061447696311	0
13	349	0.061447696311	0
13	372	0.067688547213	0
13	372	0.067688547213	0
13	388	0.068000547213	0
13	388	0.068000547213	0
13	407	0.076885314882	0
13	407	0.076885314882	0
13	422	0.077197314882	0
13	422	0.077197314882	0
13	448	0.077269702968	0
13	448	0.077269702968	0
13	463	0.077581702968	0
13	463	0.077581702968	0
13	486	0.081135696311	0
13	486	0.081135696311	0
13	501	0.081447696311	0
13	501	0.081447696311	0
13	525	0.087688547213	0
13	525	0.087688547213	0
13	540	0.088000547213	0
13	540	0.088000547213	0
13	559	0.096885314882	0
13	559	0.096885314882	0
13	574	0.097197314882	0
13	574	0.097197314882	0
13	600	0.097709702968	0
13	600	0.097709702968	0
13	616	0.098021702968	0
13	616	0.098021702968	0
13	638	0.101135696311	0
13	638	0.101135696311	0
13	653	0.101447696311	0
13	653	0.101447696311	0
13	676	0.107688547213	0
13	676	0.107688547213	0
13	691	0.108000547213	0
13	691	0.108000547213	0
13	711	0.116885314882	0
13	711	0.116885314882	0
13	726	0.117197314882	0
13	726	0.117197314882	0
13	752	0.117249702968	0
13	752	0.117249702968	0
13	767	0.117561702968	0
13	767	0.117561702968	0
13	790	0.121135696311	0
13	790	0.121135696311	0
13	805	0.121447696311	0
13	805	0.121447696311	0
13	829	0.127688547213	0
13	829	0.127688547213	0
13	844	0.128000547213	0
13	844	0.128000547213	0
13	863	0.136885314882	0
13	863	0.136885314882	0
13	878	0.137197314882	0
13	878	0.137197314882	0
13	904	0.137589702968	0
13	904	0.137589702968	0
13	919	0.137901702968	0
13	919	0.137901702968	0
13	942	0.141135696311	0
13	942	0.141135696311	0
13	957	0.141447696311	0
13	957	0.141447696311	0
13	980	0.147688547213	0
13	980	0.147688547213	0
13	996	0.148000547213	0
13	996	0.148000547213	0
13	1015	0.156885314882	0
13	1015	0.156885314882	0
13	1030	0.157197314882	0
13	1030	0.157197314882	0
13	1056	0.157269702968	0
13	1056	0.157269702968	0
13	1071	0.157581702968	0
13	1071	0.157581702968	0
13	1094	0.161135696311	0
13	1094	0.161135696311	0
14	0	0	0
14	0	0	0
14	31	0.021135696311	0
14	31	0.021135696311	0
14	44	0.021447696311	0
14	44	0.021447696311	0
14	67	0.027688547213	0
14	67	0.027688547213	0
14	81	0.028000547213	0
14	81	0.028000547213	0
14	101	0.036885314882	0
14	101	0.036885314882	0
14	118	0.037197314882	0
14	118	0.037197314882	0
14	144	0.037349702968	0
14	144	0.037349702968	0
14	159	0.037661702968	0
14	159	0.037661702968	0
14	182	0.041135696311	0
14	182	0.041135696311	0
14	197	0.041447696311	0
14	197	0.041447696311	0
14	221	0.047688547213	0
14	221	0.047688547213	0
14	236	0.048000547213	0
14	236	0.048000547213	0
14	255	0.056885314882	0
14	255	0.056885314882	0
14	270	0.057197314882	0
14	270	0.057197314882	0
14	296	0.057589702968	0
14	296	0.057589702968	0
14	311	0.057901702968	0
14	311	0.057901702968	0
14	334	0.061135696311	0
14	334	0.061135696311	0
14	349	0.061447696311	0
14	349	0.061447696311	0
14	372	0.067688547213	0
14	372	0.067688547213	0
14	388	0.068000547213	0
14	388	0.068000547213	0
14	407	0.076885314882	0
14	407	0.076885314882	0
14	422	0.077197314882	0
14	422	0.077197314882	0
14	448	0.077269702968	0
14	448	0.077269702968	0
14	463	0.077581702968	0
14	463	0.077581702968	0
14	486	0.081135696311	0
14	486	0.081135696311	0
14	501	0.081447696311	0
14	501	0.081447696311	0
14	525	0.087688547213	0
14	525	0.087688547213	0
14	540	0.088000547213	0
14	540	0.088000547213	0
14	559	0.096885314882	0
14	559	0.096885314882	0
14	574	0.097197314882	0
14	574	0.097197314882	0
14	600	0.097709702968	0
14	600	0.097709702968	0
14	616	0.098021702968	0
14	616	0.098021702968	0
14	638	0.101135696311	0
14	638	0.101135696311	0
14	653	0.101447696311	0
14	653	0.101447696311	0
14	676	0.107688547213	0
14	676	0.107688547213	0
14	691	0.108000547213	0
14	691	0.108000547213	0
14	711	0.116885314882	0
14	711	0.116885314882	0
14	726	0.117197314882	0
14	726	0.117197314882	0
14	752	0.117249702968	0
14	752	0.117249702968	0
14	767	0.117561702968	0
14	767	0.117561702968	0
14	790	0.121135696311	0
14	790	0.121135696311	0
14	805	0.121447696311	0
14	805	0.121447696311	0
14	829	0.127688547213	0
14	829	0.127688547213	0
14	844	0.128000547213	0
14	844	0.128000547213	0
14	863	0.136885314882	0
14	863	0.136885314882	0
14	878	0.137197314882	0
14	878	0.137197314882	0
14	904	0.137589702968	0
14	904	0.137589702968	0
14	919	0.137901702968	0
14	919	0.137901702968	0
14	942	0.141135696311	0
14	942	0.141135696311	0
14	957	0.141447696311	0
14	957	0.141447696311	0
14	980	0.147688547213	0
14	980	0.147688547213	0
14	996	0.148000547213	0
14	996	0.148000547213	0
14	1015	0.156885314882	0
14	1015	0.156885314882	0
14	1030	0.157197314882	0
14	1030	0.157197314882	0
14	1056	0.157269702968	0
14	1056	0.157269702968	0
14	1071	0.157581702968	0
14	1071	0.157581702968	0
14	1094	0.161135696311	0
14	1094	0.161135696311	0
15	0	0	0
15	0	0	0
15	31	0.021135696311	0
15	31	0.021135696311	0
15	44	0.021447696311	0
15	44	0.021447696311	0
15	67	0.027688547213	0
15	67	0.027688547213	0
15	81	0.028000547213	0
15	81	0.028000547213	0
15	101	0.036885314882	0
15	101	0.036885314882	0
15	118	0.037197314882	0
15	118	0.037197314882	0
15	144	0.037349702968	0
15	144	0.037349702968	0
15	159	0.037661702968	0
15	159	0.037661702968	0
15	182	0.041135696311	0
15	182	0.041135696311	0
15	197	0.041447696311	0
15	197	0.041447696311	0
15	221	0.047688547213	0
15	221	0.047688547213	0
15	236	0.048000547213	0
15	236	0.048000547213	0
15	255	0.056885314882	0
15	255	0.056885314882	0
15	270	0.057197314882	0
15	270	0.057197314882	0
15	296	0.057589702968	0
15	296	0.057589702968	0
15	311	0.057901702968	0
15	311	0.057901702968	0
15	334	0.061135696311	0
15	334	0.061135696311	0
15	349	0.061447696311	0
15	349	0.061447696311	0
15	372	0.067688547213	0
15	372	0.067688547213	0
15	388	0.068000547213	0
15	388	0.068000547213	0
15	407	0.076885314882	0
15	407	0.076885314882	0
15	422	0.077197314882	0
15	422	0.077197314882	0
15	448	0.077269702968	0
15	448	0.077269702968	0
15	463	0.077581702968	0
15	463	0.077581702968	0
15	486	0.081135696311	0
15	486	0.081135696311	0
15	501	0.081447696311	0
15	501	0.081447696311	0
15	525	0.087688547213	0
15	525	0.087688547213	0
15	540	0.088000547213	0
15	540	0.088000547213	0
15	559	0.096885314882	0
15	559	0.096885314882	0
15	574	0.097197314882	0
15	574	0.097197314882	0
15	600	0.097709702968	0
15	600	0.097709702968	0
15	616	0.098021702968	0
15	616	0.098021702968	0
15	638	0.101135696311	0
15	638	0.101135696311	0
15	653	0.101447696311	0
15	653	0.101447696311	0
15	676	0.107688547213	0
15	676	0.107688547213	0
15	691	0.108000547213	0
15	691	0.108000547213	0
15	711	0.116885314882	0
15	711	0.116885314882	0
15	726	0.117197314882	0
15	726	0.117197314882	0
15	752	0.117249702968	0
15	752	0.117249702968	0
15	767	0.117561702968	0
15	767	0.117561702968	0
15	790	0.121135696311	0
15	790	0.121135696311	0
15	805	0.121447696311	0
15	805	0.121447696311	0
15	829	0.127688547213	0
15	829	0.127688547213	0
15	844	0.128000547213	0
15	844	0.128000547213	0
15	863	0.136885314882	0
15	863	0.136885314882	0
15	878	0.137197314882	0
15	878	0.137197314882	0
15	904	0.137589702968	0
15	904	0.137589702968	0
15	919	0.137901702968	0
15	919	0.137901702968	0
15	942	0.141135696311	0
15	942	0.141135696311	0
15	957	0.141447696311	0
15	957	0.141447696311	0
15	980	0.147688547213	0
15	980	0.147688547213	0
15	996	0.148000547213	0
15	996	0.148000547213	0
15	1015	0.156885314882	0
15	1015	0.156885314882	0
15	1030	0.157197314882	0
15	1030	0.157197314882	0
15	1056	0.157269702968	0
15	1056	0.157269702968	0
15	1071	0.157581702968	0
15	1071	0.157581702968	0
15	1094	0.161135696311	0
15	1094	0.161135696311	0
16	0	0	0
16	0	0	0
16	31	0.021135696311	0
16	31	0.021135696311	0
16	44	0.021447696311	0
16	44	0.021447696311	0
16	67	0.027688547213	0
16	67	0.027688547213	0
16	81	0.028000547213	0
16	81	0.028000547213	0
16	101	0.036885314882	0
16	101	0.036885314882	0
16	118	0.037197314882	0
16	118	0.037197314882	0
16	144	0.037349702968	0
16	144	0.037349702968	0
16	159	0.037661702968	0
16	159	0.037661702968	0
16	182	0.041135696311	0
16	182	0.041135696311	0
16	197	0.041447696311	0
16	197	0.041447696311	0
16	221	0.047688547213	0
16	221	0.047688547213	0
16	236	0.048000547213	0
16	236	0.048000547213	0
16	255	0.056885314882	0
16	255	0.056885314882	0
16	270	0.057197314882	0
16	270	0.057197314882	0
16	296	0.057589702968	0
16	296	0.057589702968	0
16	311	0.057901702968	0
16	311	0.057901702968	0
16	334	0.061135696311	0
16	334	0.061135696311	0
16	349	0.061447696311	0
16	349	0.061447696311	0
16	372	0.067688547213	0
16	372	0.067688547213	0
16	388	0.068000547213	0
16	388	0.068000547213	0
16	407	0.076885314882	0
16	407	0.076885314882	0
16	422	0.077197314882	0
16	422	0.077197314882	0
16	448	0.077269702968	0
16	448	0.077269702968	0
16	463	0.077581702968	0
16	463	0.077581702968	0
16	486	0.081135696311	0
16	486	0.081135696311	0
16	501	0.081447696311	0
16	501	0.081447696311	0
16	525	0.087688547213	0
16	525	0.087688547213	0
16	540	0.088000547213	0
16	540	0.088000547213	0
16	559	0.096885314882	0
16	559	0.096885314882	0
16	574	0.097197314882	0
16	574	0.097197314882	0
16	600	0.097709702968	0
16	600	0.097709702968	0
16	616	0.098021702968	0
16	616	0.098021702968	0
16	638	0.101135696311	0
16	638	0.101135696311	0
16	653	0.101447696311	0
16	653	0.101447696311	0
16	676	0.107688547213	0
16	676	0.107688547213	0
16	691	0.108000547213	0
16	691	0.108000547213	0
16	711	0.116885314882	0
16	711	0.116885314882	0
16	726	0.117197314882	0
16	726	0.117197314882	0
16	752	0.117249702968	0
16	752	0.117249702968	0
16	767	0.117561702968	0
16	767	0.117561702968	0
16	790	0.121135696311	0
16	790	0.121135696311	0
16	805	0.121447696311	0
16	805	0.121447696311	0
16	829	0.127688547213	0
16	829	0.127688547213	0
16	844	0.128000547213	0
16	844	0.128000547213	0
16	863	0.136885314882	0
16	863	0.136885314882	0
16	878	0.137197314882	0
16	878	0.137197314882	0
16	904	0.137589702968	0
16	904	0.137589702968	0
16	919	0.137901702968	0
16	919	0.137901702968	0
16	942	0.141135696311	0
16	942	0.141135696311	0
16	957	0.141447696311	0
16	957	0.141447696311	0
16	980	0.147688547213	0
16	980	0.147688547213	0
16	996	0.148000547213	0
16	996	0.148000547213	0
16	1015	0.156885314882	0
16	1015	0.156885314882	0
16	1030	0.157197314882	0
16	1030	0.157197314882	0
16	1056	0.157269702968	0
16	1056	0.157269702968	0
16	1071	0.157581702968	0
16	1071	0.157581702968	0
16	1094	0.161135696311	0
16	1094	0.161135696311	0
17	0	0	0
17	0	0	0
17	29	0.021134506017	0
17	29	0.021134506017	0
17	34	0.021446506017	0
17	34	0.021446506017	0
17	65	0.027688062566	0
17	65	0.027688062566	0
17	70	0.028000062566	0
17	70	0.028000062566	0
17	104	0.036886508925	0
17	104	0.036886508925	0
17	114	0.036945034745	0
17	114	0.036945034745	1
17	125	0.037198508925	1
17	125	0.037198508925	2
17	137	0.037348508925	2
17	137	0.037348508925	0
17	140	0.037348508925	0
17	140	0.037348508925	0
17	146	0.037660508925	0
17	146	0.037660508925	0
17	180	0.041134506017	0
17	180	0.041134506017	0
17	185	0.041446506017	0
17	185	0.041446506017	0
17	219	0.047688062566	0
17	219	0.047688062566	0
17	224	0.048000062566	0
17	224	0.048000062566	0
17	258	0.056886508925	0
17	258	0.056886508925	0
17	266	0.056945034745	0
17	266	0.056945034745	1
17	277	0.057198508925	1
17	277	0.057198508925	2
17	289	0.057588508925	2
17	289	0.057588508925	0
17	292	0.057588508925	0
17	292	0.057588508925	0
17	298	0.057900508925	0
17	298	0.057900508925	0
17	332	0.061134506017	0
17	332	0.061134506017	0
17	337	0.061446506017	0
17	337	0.061446506017	0
17	370	0.067688062566	0
17	370	0.067688062566	0
17	376	0.068000062566	0
17	376	0.068000062566	0
17	410	0.076886508925	0
17	410	0.076886508925	0
17	418	0.076945034745	0
17	418	0.076945034745	1
17	429	0.077198508925	1
17	429	0.077198508925	2
17	441	0.077268508925	2
17	441	0.077268508925	0
17	444	0.077268508925	0
17	444	0.077268508925	0
17	450	0.077580508925	0
17	450	0.077580508925	0
17	484	0.081134506017	0
17	484	0.081134506017	0
17	489	0.081446506017	0
17	489	0.081446506017	0
17	523	0.087688062566	0
17	523	0.087688062566	0
17	528	0.088000062566	0
17	528	0.088000062566	0
17	562	0.096886508925	0
17	562	0.096886508925	0
17	570	0.096945034745	0
17	570	0.096945034745	1
17	581	0.097198508925	1
17	581	0.097198508925	2
17	593	0.097708508925	2
17	593	0.097708508925	0
17	596	0.097708508925	0
17	596	0.097708508925	0
17	603	0.098020508925	0
17	603	0.098020508925	0
17	636	0.101134506017	0
17	636	0.101134506017	0
17	641	0.101446506017	0
17	641	0.101446506017	0
17	674	0.107688062566	0
17	674	0.107688062566	0
17	679	0.108000062566	0
17	679	0.108000062566	0
17	714	0.116886508925	0
17	714	0.116886508925	0
17	722	0.116945034745	0
17	722	0.116945034745	1
17	733	0.117198508925	1
17	733	0.117198508925	2
17	745	0.117248508925	2
17	745	0.117248508925	0
17	748	0.117248508925	0
17	748	0.117248508925	0
17	754	0.117560508925	0
17	754	0.117560508925	0
17	788	0.121134506017	0
17	788	0.121134506017	0
17	793	0.121446506017	0
17	793	0.121446506017	0
17	827	0.127688062566	0
17	827	0.127688062566	0
17	832	0.128000062566	0
17	832	0.128000062566	0
17	866	0.136886508925	0
17	866	0.136886508925	0
17	874	0.136945034745	0
17	874	0.136945034745	1
17	885	0.137198508925	1
17	885	0.137198508925	2
17	897	0.137588508925	2
17	897	0.137588508925	0
17	900	0.137588508925	0
17	900	0.137588508925	0
17	906	0.137900508925	0
17	906	0.137900508925	0
17	940	0.141134506017	0
17	940	0.141134506017	0
17	945	0.141446506017	0
17	945	0.141446506017	0
17	978	0.147688062566	0
17	978	0.147688062566	0
17	984	0.148000062566	0
17	984	0.148000062566	0
17	1018	0.156886508925	0
17	1018	0.156886508925	0
17	1026	0.156945034745	0
17	1026	0.156945034745	1
17	1037	0.157198508925	1
17	1037	0.157198508925	2
17	1049	0.157268508925	2
17	1049	0.157268508925	0
17	1052	0.157268508925	0
17	1052	0.157268508925	0
17	1058	0.157580508925	0
17	1058	0.157580508925	0
17	1092	0.161134506017	0
17	1092	0.161134506017	0
17	1097	0.161446506017	0
17	1097	0.161446506017	0
18	0	0	0
18	0	0	0
18	29	0.021134506017	0
18	29	0.021134506017	0
18	34	0.021446506017	0
18	34	0.021446506017	0
18	65	0.027688062566	0
18	65	0.027688062566	0
18	70	0.028000062566	0
18	70	0.028000062566	0
18	104	0.036886508925	0
18	104	0.036886508925	0
18	125	0.037198508925	0
18	125	0.037198508925	0
18	140	0.037348508925	0
18	140	0.037348508925	0
18	146	0.037660508925	0
18	146	0.037660508925	0
18	180	0.041134506017	0
18	180	0.041134506017	0
18	185	0.041446506017	0
18	185	0.041446506017	0
18	219	0.047688062566	0
18	219	0.047688062566	0
18	224	0.048000062566	0
18	224	0.048000062566	0
18	258	0.056886508925	0
18	258	0.056886508925	0
18	277	0.057198508925	0
18	277	0.057198508925	0
18	292	0.057588508925	0
18	292	0.057588508925	0
18	298	0.057900508925	0
18	298	0.057900508925	0
18	332	0.061134506017	0
18	332	0.061134506017	0
18	337	0.061446506017	0
18	337	0.061446506017	0
18	370	0.067688062566	0
18	370	0.067688062566	0
18	376	0.068000062566	0
18	376	0.068000062566	0
18	410	0.076886508925	0
18	410	0.076886508925	0
18	429	0.077198508925	0
18	429	0.077198508925	0
18	444	0.077268508925	0
18	444	0.077268508925	0
18	450	0.077580508925	0
18	450	0.077580508925	0
18	484	0.081134506017	0
18	484	0.081134506017	0
18	489	0.081446506017	0
18	489	0.081446506017	0
18	523	0.087688062566	0
18	523	0.087688062566	0
18	528	0.088000062566	0
18	528	0.088000062566	0
18	562	0.096886508925	0
18	562	0.096886508925	0
18	581	0.097198508925	0
18	581	0.097198508925	0
18	596	0.097708508925	0
18	596	0.097708508925	0
18	603	0.098020508925	0
18	603	0.098020508925	0
18	636	0.101134506017	0
18	636	0.101134506017	0
18	641	0.101446506017	0
18	641	0.101446506017	0
18	674	0.107688062566	0
18	674	0.107688062566	0
18	679	0.108000062566	0
18	679	0.108000062566	0
18	714	0.116886508925	0
18	714	0.116886508925	0
18	733	0.117198508925	0
18	733	0.117198508925	0
18	748	0.117248508925	0
18	748	0.117248508925	0
18	754	0.117560508925	0
18	754	0.117560508925	0
18	788	0.121134506017	0
18	788	0.121134506017	0
18	793	0.121446506017	0
18	793	0.121446506017	0
18	827	0.127688062566	0
18	827	0.127688062566	0
18	832	0.128000062566	0
18	832	0.128000062566	0
18	866	0.136886508925	0
18	866	0.136886508925	0
18	885	0.137198508925	0
18	885	0.137198508925	0
18	900	0.137588508925	0
18	900	0.137588508925	0
18	906	0.137900508925	0
18	906	0.137900508925	0
18	940	0.141134506017	0
18	940	0.141134506017	0
18	945	0.141446506017	0
18	945	0.141446506017	0
18	978	0.147688062566	0
18	978	0.147688062566	0
18	984	0.148000062566	0
18	984	0.148000062566	0
18	1018	0.156886508925	0
18	1018	0.156886508925	0
18	1037	0.157198508925	0
18	1037	0.157198508925	0
18	1052	0.157268508925	0
18	1052	0.157268508925	0
18	1058	0.157580508925	0
18	1058	0.157580508925	0
18	1092	0.161134506017	0
18	1092	0.161134506017	0
18	1097	0.161446506017	0
18	1097	0.161446506017	0
19	0	0	0
19	0	0	0
19	29	0.021134506017	0
19	29	0.021134506017	0
19	34	0.021446506017	0
19	34	0.021446506017	0
19	65	0.027688062566	0
19	65	0.027688062566	0
19	70	0.028000062566	0
19	70	0.028000062566	0
19	104	0.036886508925	0
19	104	0.036886508925	0
19	125	0.037198508925	0
19	125	0.037198508925	0
19	140	0.037348508925	0
19	140	0.037348508925	0
19	146	0.037660508925	0
19	146	0.037660508925	0
19	180	0.041134506017	0
19	180	0.041134506017	0
19	185	0.041446506017	0
19	185	0.041446506017	0
19	219	0.047688062566	0
19	219	0.047688062566	0
19	224	0.048000062566	0
19	224	0.048000062566	0
19	258	0.056886508925	0
19	258	0.056886508925	0
19	277	0.057198508925	0
19	277	0.057198508925	0
19	292	0.057588508925	0
19	292	0.057588508925	0
19	298	0.057900508925	0
19	298	0.057900508925	0
19	332	0.061134506017	0
19	332	0.061134506017	0
19	337	0.061446506017	0
19	337	0.061446506017	0
19	370	0.067688062566	0
19	370	0.067688062566	0
19	376	0.068000062566	0
19	376	0.068000062566	0
19	410	0.076886508925	0
19	410	0.076886508925	0
19	429	0.077198508925	0
19	429	0.077198508925	0
19	444	0.077268508925	0
19	444	0.077268508925	0
19	450	0.077580508925	0
19	450	0.077580508925	0
19	484	0.081134506017	0
19	484	0.081134506017	0
19	489	0.081446506017	0
19	489	0.081446506017	0
19	523	0.087688062566	0
19	523	0.087688062566	0
19	528	0.088000062566	0
19	528	0.088000062566	0
19	562	0.096886508925	0
19	562	0.096886508925	0
19	581	0.097198508925	0
19	581	0.097198508925	0
19	596	0.097708508925	0
19	596	0.097708508925	0
19	603	0.098020508925	0
19	603	0.098020508925	0
19	636	0.101134506017	0
19	636	0.101134506017	0
19	641	0.101446506017	0
19	641	0.101446506017	0
19	674	0.107688062566	0
19	674	0.107688062566	0
19	679	0.108000062566	0
19	679	0.108000062566	0
19	714	0.116886508925	0
19	714	0.116886508925	0
19	733	0.117198508925	0
19	733	0.117198508925	0
19	748	0.117248508925	0
19	748	0.117248508925	0
19	754	0.117560508925	0
19	754	0.117560508925	0
19	788	0.121134506017	0
19	788	0.121134506017	0
19	793	0.121446506017	0
19	793	0.121446506017	0
19	827	0.127688062566	0
19	827	0.127688062566	0
19	832	0.128000062566	0
19	832	0.128000062566	0
19	866	0.136886508925	0
19	866	0.136886508925	0
19	885	0.137198508925	0
19	885	0.137198508925	0
19	900	0.137588508925	0
19	900	0.137588508925	0
19	906	0.137900508925	0
19	906	0.137900508925	0
19	940	0.141134506017	0
19	940	0.141134506017	0
19	945	0.141446506017	0
19	945	0.141446506017	0
19	978	0.147688062566	0
19	978	0.147688062566	0
19	984	0.148000062566	0
19	984	0.148000062566	0
19	1018	0.156886508925	0
19	1018	0.156886508925	0
19	1037	0.157198508925	0
19	1037	0.157198508925	0
19	1052	0.157268508925	0
19	1052	0.157268508925	0
19	1058	0.157580508925	0
19	1058	0.157580508925	0
19	1092	0.161134506017	0
19	1092	0.161134506017	0
19	1097	0.161446506017	0
19	1097	0.161446506017	0
20	0	0	0
20	0	0	0
20	29	0.021134506017	0
20	29	0.021134506017	0
20	34	0.021446506017	0
20	34	0.021446506017	0
20	65	0.027688062566	0
20	65	0.027688062566	0
20	70	0.028000062566	0
20	70	0.028000062566	0
20	104	0.036886508925	0
20	104	0.036886508925	0
20	125	0.037198508925	0
20	125	0.037198508925	0
20	140	0.037348508925	0
20	140	0.037348508925	0
20	146	0.037660508925	0
20	146	0.037660508925	0
20	180	0.041134506017	0
20	180	0.041134506017	0
20	185	0.041446506017	0
20	185	0.041446506017	0
20	219	0.047688062566	0
20	219	0.047688062566	0
20	224	0.048000062566	0
20	224	0.048000062566	0
20	258	0.056886508925	0
20	258	0.056886508925	0
20	277	0.057198508925	0
20	277	0.057198508925	0
20	292	0.057588508925	0
20	292	0.057588508925	0
20	298	0.057900508925	0
20	298	0.057900508925	0
20	332	0.061134506017	0
20	332	0.061134506017	0
20	337	0.061446506017	0
20	337	0.061446506017	0
20	370	0.067688062566	0
20	370	0.067688062566	0
20	376	0.068000062566	0
20	376	0.068000062566	0
20	410	0.076886508925	0
20	410	0.076886508925	0
20	429	0.077198508925	0
20	429	0.077198508925	0
20	444	0.077268508925	0
20	444	0.077268508925	0
20	450	0.077580508925	0
20	450	0.077580508925	0
20	484	0.081134506017	0
20	484	0.081134506017	0
20	489	0.081446506017	0
20	489	0.081446506017	0
20	523	0.087688062566	0
20	523	0.087688062566	0
20	528	0.088000062566	0
20	528	0.088000062566	0
20	562	0.096886508925	0
20	562	0.096886508925	0
20	581	0.097198508925	0
20	581	0.097198508925	0
20	596	0.097708508925	0
20	596	0.097708508925	0
20	603	0.098020508925	0
20	603	0.098020508925	0
20	636	0.101134506017	0
20	636	0.101134506017	0
20	641	0.101446506017	0
20	641	0.101446506017	0
20	674	0.107688062566	0
20	674	0.107688062566	0
20	679	0.108000062566	0
20	679	0.108000062566	0
20	714	0.116886508925	0
20	714	0.116886508925	0
20	733	0.117198508925	0
20	733	0.117198508925	0
20	748	0.117248508925	0
20	748	0.117248508925	0
20	754	0.117560508925	0
20	754	0.117560508925	0
20	788	0.121134506017	0
20	788	0.121134506017	0
20	793	0.121446506017	0
20	793	0.121446506017	0
20	827	0.127688062566	0
20	827	0.127688062566	0
20	832	0.128000062566	0
20	832	0.128000062566	0
20	866	0.136886508925	0
20	866	0.136886508925	0
20	885	0.137198508925	0
20	885	0.137198508925	0
20	900	0.137588508925	0
20	900	0.137588508925	0
20	906	0.137900508925	0
20	906	0.137900508925	0
20	940	0.141134506017	0
20	940	0.141134506017	0
20	945	0.141446506017	0
20	945	0.141446506017	0
20	978	0.147688062566	0
20	978	0.147688062566	0
20	984	0.148000062566	0
20	984	0.148000062566	0
20	1018	0.156886508925	0
20	1018	0.156886508925	0
20	1037	0.157198508925	0
20	1037	0.157198508925	0
20	1052	0.157268508925	0
20	1052	0.157268508925	0
20	1058	0.157580508925	0
20	1058	0.157580508925	0
20	1092	0.161134506017	0
20	1092	0.161134506017	0
20	1097	0.161446506017	0
20	1097	0.161446506017	0
21	0	0	0
21	0	0	0
21	29	0.021134506017	0
21	29	0.021134506017	0
21	34	0.021446506017	0
21	34	0.021446506017	0
21	65	0.027688062566	0
21	65	0.027688062566	0
21	70	0.028000062566	0
21	70	0.028000062566	0
21	104	0.036886508925	0
21	104	0.036886508925	0
21	125	0.037198508925	0
21	125	0.037198508925	0
21	140	0.037348508925	0
21	140	0.037348508925	0
21	146	0.037660508925	0
21	146	0.037660508925	0
21	180	0.041134506017	0
21	180	0.041134506017	0
21	185	0.041446506017	0
21	185	0.041446506017	0
21	219	0.047688062566	0
21	219	0.047688062566	0
21	224	0.048000062566	0
21	224	0.048000062566	0
21	258	0.056886508925	0
21	258	0.056886508925	0
21	277	0.057198508925	0
21	277	0.057198508925	0
21	292	0.057588508925	0
21	292	0.057588508925	0
21	298	0.057900508925	0
21	298	0.057900508925	0
21	332	0.061134506017	0
21	332	0.061134506017	0
21	337	0.061446506017	0
21	337	0.061446506017	0
21	370	0.067688062566	0
21	370	0.067688062566	0
21	376	0.068000062566	0
21	376	0.068000062566	0
21	410	0.076886508925	0
21	410	0.076886508925	0
21	429	0.077198508925	0
21	429	0.077198508925	0
21	444	0.077268508925	0
21	444	0.077268508925	0
21	450	0.077580508925	0
21	450	0.077580508925	0
21	484	0.081134506017	0
21	484	0.081134506017	0
21	489	0.081446506017	0
21	489	0.081446506017	0
21	523	0.087688062566	0
21	523	0.087688062566	0
21	528	0.088000062566	0
21	528	0.088000062566	0
21	562	0.096886508925	0
21	562	0.096886508925	0
21	581	0.097198508925	0
21	581	0.097198508925	0
21	596	0.097708508925	0
21	596	0.097708508925	0
21	603	0.098020508925	0
21	603	0.098020508925	0
21	636	0.101134506017	0
21	636	0.101134506017	0
21	641	0.101446506017	0
21	641	0.101446506017	0
21	674	0.107688062566	0
21	674	0.107688062566	0
21	679	0.108000062566	0
21	679	0.108000062566	0
21	714	0.116886508925	0
21	714	0.116886508925	0
21	733	0.117198508925	0
21	733	0.117198508925	0
21	748	0.117248508925	0
21	748	0.117248508925	0
21	754	0.117560508925	0
21	754	0.117560508925	0
21	788	0.121134506017	0
21	788	0.121134506017	0
21	793	0.121446506017	0
21	793	0.121446506017	0
21	827	0.127688062566	0
21	827	0.127688062566	0
21	832	0.128000062566	0
21	832	0.128000062566	0
21	866	0.136886508925	0
21	866	0.136886508925	0
21	885	0.137198508925	0
21	885	0.137198508925	0
21	900	0.137588508925	0
21	900	0.137588508925	0
21	906	0.137900508925	0
21	906	0.137900508925	0
21	940	0.141134506017	0
21	940	0.141134506017	0
21	945	0.141446506017	0
21	945	0.141446506017	0
21	978	0.147688062566	0
21	978	0.147688062566	0
21	984	0.148000062566	0
21	984	0.148000062566	0
21	1018	0.156886508925	0
21	1018	0.156886508925	0
21	1037	0.157198508925	0
21	1037	0.157198508925	0
21	1052	0.157268508925	0
21	1052	0.157268508925	0
21	1058	0.157580508925	0
21	1058	0.157580508925	0
21	1092	0.161134506017	0
21	1092	0.161134506017	0
21	1097	0.161446506017	0
21	1097	0.161446506017	0
22	0	0	0
22	0	0	0
22	30	0.021134913519	0
22	30	0.021134913519	0
22	39	0.021446913519	0
22	39	0.021446913519	0
22	57	0.027687634164	0
22	57	0.027687634164	2
22	60	0.027687634164	2
22	60	0.027687634164	0
22	63	0.027687634164	0
22	63	0.027687634164	0
22	69	0.027999634164	0
22	69	0.027999634164	0
22	103	0.036886227931	0
22	103	0.036886227931	0
22	119	0.037198227931	0
22	119	0.037198227931	0
22	143	0.037348937327	0
22	143	0.037348937327	0
22	153	0.037660937327	0
22	153	0.037660937327	0
22	181	0.041134913519	0
22	181	0.041134913519	0
22	191	0.041446913519	0
22	191	0.041446913519	0
22	211	0.047687634164	0
22	211	0.047687634164	2
22	214	0.047687634164	2
22	214	0.047687634164	0
22	217	0.047687634164	0
22	217	0.047687634164	0
22	223	0.047999634164	0
22	223	0.047999634164	0
22	257	0.056886227931	0
22	257	0.056886227931	0
22	271	0.057198227931	0
22	271	0.057198227931	0
22	295	0.057588937327	0
22	295	0.057588937327	0
22	305	0.057900937327	0
22	305	0.057900937327	0
22	333	0.061134913519	0
22	333	0.061134913519	0
22	343	0.061446913519	0
22	343	0.061446913519	0
22	362	0.067687634164	0
22	362	0.067687634164	2
22	365	0.067687634164	2
22	365	0.067687634164	0
22	368	0.067687634164	0
22	368	0.067687634164	0
22	375	0.067999634164	0
22	375	0.067999634164	0
22	409	0.076886227931	0
22	409	0.076886227931	0
22	423	0.077198227931	0
22	423	0.077198227931	0
22	447	0.077268937327	0
22	447	0.077268937327	0
22	457	0.077580937327	0
22	457	0.077580937327	0
22	485	0.081134913519	0
22	485	0.081134913519	0
22	495	0.081446913519	0
22	495	0.081446913519	0
22	515	0.087687634164	0
22	515	0.087687634164	2
22	518	0.087687634164	2
22	518	0.087687634164	0
22	521	0.087687634164	0
22	521	0.087687634164	0
22	527	0.087999634164	0
22	527	0.087999634164	0
22	561	0.096886227931	0
22	561	0.096886227931	0
22	575	0.097198227931	0
22	575	0.097198227931	0
22	599	0.097708937327	0
22	599	0.097708937327	0
22	610	0.098020937327	0
22	610	0.098020937327	0
22	637	0.101134913519	0
22	637	0.101134913519	0
22	647	0.101446913519	0
22	647	0.101446913519	0
22	666	0.107687634164	0
22	666	0.107687634164	2
22	669	0.107687634164	2
22	669	0.107687634164	0
22	672	0.107687634164	0
22	672	0.107687634164	0
22	678	0.107999634164	0
22	678	0.107999634164	0
22	713	0.116886227931	0
22	713	0.116886227931	0
22	727	0.117198227931	0
22	727	0.117198227931	0
22	751	0.117248937327	0
22	751	0.117248937327	0
22	761	0.117560937327	0
22	761	0.117560937327	0
22	789	0.121134913519	0
22	789	0.121134913519	0
22	799	0.121446913519	0
22	799	0.121446913519	0
22	819	0.127687634164	0
22	819	0.127687634164	2
22	822	0.127687634164	2
22	822	0.127687634164	0
22	825	0.127687634164	0
22	825	0.127687634164	0
22	831	0.127999634164	0
22	831	0.127999634164	0
22	865	0.136886227931	0
22	865	0.136886227931	0
22	879	0.137198227931	0
22	879	0.137198227931	0
22	903	0.137588937327	0
22	903	0.137588937327	0
22	913	0.137900937327	0
22	913	0.137900937327	0
22	941	0.141134913519	0
22	941	0.141134913519	0
22	951	0.141446913519	0
22	951	0.141446913519	0
22	970	0.147687634164	0
22	970	0.147687634164	2
22	973	0.147687634164	2
22	973	0.147687634164	0
22	976	0.147687634164	0
22	976	0.147687634164	0
22	983	0.147999634164	0
22	983	0.147999634164	0
22	1017	0.156886227931	0
22	1017	0.156886227931	0
22	1031	0.157198227931	0
22	1031	0.157198227931	0
22	1055	0.157268937327	0
22	1055	0.157268937327	0
22	1065	0.157580937327	0
22	1065	0.157580937327	0
22	1093	0.161134913519	0
22	1093	0.161134913519	0
22	1103	0.161446913519	0
22	1103	0.161446913519	0
23	0	0	0
23	0	0	0
23	30	0.021134913519	0
23	30	0.021134913519	0
23	39	0.021446913519	0
23	39	0.021446913519	0
23	63	0.027687634164	0
23	63	0.027687634164	0
23	69	0.027999634164	0
23	69	0.027999634164	0
23	103	0.036886227931	0
23	103	0.036886227931	0
23	119	0.037198227931	0
23	119	0.037198227931	0
23	143	0.037348937327	0
23	143	0.037348937327	0
23	153	0.037660937327	0
23	153	0.037660937327	0
23	181	0.041134913519	0
23	181	0.041134913519	0
23	191	0.041446913519	0
23	191	0.041446913519	0
23	217	0.047687634164	0
23	217	0.047687634164	0
23	223	0.047999634164	0
23	223	0.047999634164	0
23	257	0.056886227931	0
23	257	0.056886227931	0
23	271	0.057198227931	0
23	271	0.057198227931	0
23	295	0.057588937327	0
23	295	0.057588937327	0
23	305	0.057900937327	0
23	305	0.057900937327	0
23	333	0.061134913519	0
23	333	0.061134913519	0
23	343	0.061446913519	0
23	343	0.061446913519	0
23	368	0.067687634164	0
23	368	0.067687634164	0
23	375	0.067999634164	0
23	375	0.067999634164	0
23	409	0.076886227931	0
23	409	0.076886227931	0
23	423	0.077198227931	0
23	423	0.077198227931	0
23	447	0.077268937327	0
23	447	0.077268937327	0
23	457	0.077580937327	0
23	457	0.077580937327	0
23	485	0.081134913519	0
23	485	0.081134913519	0
23	495	0.081446913519	0
23	495	0.081446913519	0
23	521	0.087687634164	0
23	521	0.087687634164	0
23	527	0.087999634164	0
23	527	0.087999634164	0
23	561	0.096886227931	0
23	561	0.096886227931	0
23	575	0.097198227931	0
23	575	0.097198227931	0
23	599	0.097708937327	0
23	599	0.097708937327	0
23	610	0.098020937327	0
23	610	0.098020937327	0
23	637	0.101134913519	0
23	637	0.101134913519	0
23	647	0.101446913519	0
23	647	0.101446913519	0
23	672	0.107687634164	0
23	672	0.107687634164	0
23	678	0.107999634164	0
23	678	0.107999634164	0
23	713	0.116886227931	0
23	713	0.116886227931	0
23	727	0.117198227931	0
23	727	0.117198227931	0
23	751	0.117248937327	0
23	751	0.117248937327	0
23	761	0.117560937327	0
23	761	0.117560937327	0
23	789	0.121134913519	0
23	789	0.121134913519	0
23	799	0.121446913519	0
23	799	0.121446913519	0
23	825	0.127687634164	0
23	825	0.127687634164	0
23	831	0.127999634164	0
23	831	0.127999634164	0
23	865	0.136886227931	0
23	865	0.136886227931	0
23	879	0.137198227931	0
23	879	0.137198227931	0
23	903	0.137588937327	0
23	903	0.137588937327	0
23	913	0.137900937327	0
23	913	0.137900937327	0
23	941	0.141134913519	0
23	941	0.141134913519	0
23	951	0.141446913519	0
23	951	0.141446913519	0
23	976	0.147687634164	0
23	976	0.147687634164	0
23	983	0.147999634164	0
23	983	0.147999634164	0
23	1017	0.156886227931	0
23	1017	0.156886227931	0
23	1031	0.157198227931	0
23	1031	0.157198227931	0
23	1055	0.157268937327	0
23	1055	0.157268937327	0
23	1065	0.157580937327	0
23	1065	0.157580937327	0
23	1093	0.161134913519	0
23	1093	0.161134913519	0
23	1103	0.161446913519	0
23	1103	0.161446913519	0
24	0	0	0
24	0	0	0
24	30	0.021134913519	0
24	30	0.021134913519	0
24	39	0.021446913519	0
24	39	0.021446913519	0
24	63	0.027687634164	0
24	63	0.027687634164	0
24	69	0.027999634164	0
24	69	0.027999634164	0
24	103	0.036886227931	0
24	103	0.036886227931	0
24	119	0.037198227931	0
24	119	0.037198227931	0
24	143	0.037348937327	0
24	143	0.037348937327	0
24	153	0.037660937327	0
24	153	0.037660937327	0
24	181	0.041134913519	0
24	181	0.041134913519	0
24	191	0.041446913519	0
24	191	0.041446913519	0
24	217	0.047687634164	0
24	217	0.047687634164	0
24	223	0.047999634164	0
24	223	0.047999634164	0
24	257	0.056886227931	0
24	257	0.056886227931	0
24	271	0.057198227931	0
24	271	0.057198227931	0
24	295	0.057588937327	0
24	295	0.057588937327	0
24	305	0.057900937327	0
24	305	0.057900937327	0
24	333	0.061134913519	0
24	333	0.061134913519	0
24	343	0.061446913519	0
24	343	0.061446913519	0
24	368	0.067687634164	0
24	368	0.067687634164	0
24	375	0.067999634164	0
24	375	0.067999634164	0
24	409	0.076886227931	0
24	409	0.076886227931	0
24	423	0.077198227931	0
24	423	0.077198227931	0
24	447	0.077268937327	0
24	447	0.077268937327	0
24	457	0.077580937327	0
24	457	0.077580937327	0
24	485	0.081134913519	0
24	485	0.081134913519	0
24	495	0.081446913519	0
24	495	0.081446913519	0
24	521	0.087687634164	0
24	521	0.087687634164	0
24	527	0.087999634164	0
24	527	0.087999634164	0
24	561	0.096886227931	0
24	561	0.096886227931	0
24	575	0.097198227931	0
24	575	0.097198227931	0
24	599	0.097708937327	0
24	599	0.097708937327	0
24	610	0.098020937327	0
24	610	0.098020937327	0
24	637	0.101134913519	0
24	637	0.101134913519	0
24	647	0.101446913519	0
24	647	0.101446913519	0
24	672	0.107687634164	0
24	672	0.107687634164	0
24	678	0.107999634164	0
24	678	0.107999634164	0
24	713	0.116886227931	0
24	713	0.116886227931	0
24	727	0.117198227931	0
24	727	0.117198227931	0
24	751	0.117248937327	0
24	751	0.117248937327	0
24	761	0.117560937327	0
24	761	0.117560937327	0
24	789	0.121134913519	0
24	789	0.121134913519	0
24	799	0.121446913519	0
24	799	0.121446913519	0
24	825	0.127687634164	0
24	825	0.127687634164	0
24	831	0.127999634164	0
24	831	0.127999634164	0
24	865	0.136886227931	0
24	865	0.136886227931	0
24	879	0.137198227931	0
24	879	0.137198227931	0
24	903	0.137588937327	0
24	903	0.137588937327	0
24	913	0.137900937327	0
24	913	0.137900937327	0
24	941	0.141134913519	0
24	941	0.141134913519	0
24	951	0.141446913519	0
24	951	0.141446913519	0
24	976	0.147687634164	0
24	976	0.147687634164	0
24	983	0.147999634164	0
24	983	0.147999634164	0
24	1017	0.156886227931	0
24	1017	0.156886227931	0
24	1031	0.157198227931	0
24	1031	0.157198227931	0
24	1055	0.157268937327	0
24	1055	0.157268937327	0
24	1065	0.157580937327	0
24	1065	0.157580937327	0
24	1093	0.161134913519	0
24	1093	0.161134913519	0
24	1103	0.161446913519	0
24	1103	0.161446913519	0
25	0	0	0
25	0	0	0
25	30	0.021134913519	0
25	30	0.021134913519	0
25	39	0.021446913519	0
25	39	0.021446913519	0
25	63	0.027687634164	0
25	63	0.027687634164	0
25	69	0.027999634164	0
25	69	0.027999634164	0
25	103	0.036886227931	0
25	103	0.036886227931	0
25	119	0.037198227931	0
25	119	0.037198227931	0
25	143	0.037348937327	0
25	143	0.037348937327	0
25	153	0.037660937327	0
25	153	0.037660937327	0
25	181	0.041134913519	0
25	181	0.041134913519	0
25	191	0.041446913519	0
25	191	0.041446913519	0
25	217	0.047687634164	0
25	217	0.047687634164	0
25	223	0.047999634164	0
25	223	0.047999634164	0
25	257	0.056886227931	0
25	257	0.056886227931	0
25	271	0.057198227931	0
25	271	0.057198227931	0
25	295	0.057588937327	0
25	295	0.057588937327	0
25	305	0.057900937327	0
25	305	0.057900937327	0
25	333	0.061134913519	0
25	333	0.061134913519	0
25	343	0.061446913519	0
25	343	0.061446913519	0
25	368	0.067687634164	0
25	368	0.067687634164	0
25	375	0.067999634164	0
25	375	0.067999634164	0
25	409	0.076886227931	0
25	409	0.076886227931	0
25	423	0.077198227931	0
25	423	0.077198227931	0
25	447	0.077268937327	0
25	447	0.077268937327	0
25	457	0.077580937327	0
25	457	0.077580937327	0
25	485	0.081134913519	0
25	485	0.081134913519	0
25	495	0.081446913519	0
25	495	0.081446913519	0
25	521	0.087687634164	0
25	521	0.087687634164	0
25	527	0.087999634164	0
25	527	0.087999634164	0
25	561	0.096886227931	0
25	561	0.096886227931	0
25	575	0.097198227931	0
25	575	0.097198227931	0
25	599	0.097708937327	0
25	599	0.097708937327	0
25	610	0.098020937327	0
25	610	0.098020937327	0
25	637	0.101134913519	0
25	637	0.101134913519	0
25	647	0.101446913519	0
25	647	0.101446913519	0
25	672	0.107687634164	0
25	672	0.107687634164	0
25	678	0.107999634164	0
25	678	0.107999634164	0
25	713	0.116886227931	0
25	713	0.116886227931	0
25	727	0.117198227931	0
25	727	0.117198227931	0
25	751	0.117248937327	0
25	751	0.117248937327	0
25	761	0.117560937327	0
25	761	0.117560937327	0
25	789	0.121134913519	0
25	789	0.121134913519	0
25	799	0.121446913519	0
25	799	0.121446913519	0
25	825	0.127687634164	0
25	825	0.127687634164	0
25	831	0.127999634164	0
25	831	0.127999634164	0
25	865	0.136886227931	0
25	865	0.136886227931	0
25	879	0.137198227931	0
25	879	0.137198227931	0
25	903	0.137588937327	0
25	903	0.137588937327	0
25	913	0.137900937327	0
25	913	0.137900937327	0
25	941	0.141134913519	0
25	941	0.141134913519	0
25	951	0.141446913519	0
25	951	0.141446913519	0
25	976	0.147687634164	0
25	976	0.147687634164	0
25	983	0.147999634164	0
25	983	0.147999634164	0
25	1017	0.156886227931	0
25	1017	0.156886227931	0
25	1031	0.157198227931	0
25	1031	0.157198227931	0
25	1055	0.157268937327	0
25	1055	0.157268937327	0
25	1065	0.157580937327	0
25	1065	0.157580937327	0
25	1093	0.161134913519	0
25	1093	0.161134913519	0
25	1103	0.161446913519	0
25	1103	0.161446913519	0
26	0	0	0
26	0	0	0
26	30	0.021134913519	0
26	30	0.021134913519	0
26	39	0.021446913519	0
26	39	0.021446913519	0
26	63	0.027687634164	0
26	63	0.027687634164	0
26	69	0.027999634164	0
26	69	0.027999634164	0
26	103	0.036886227931	0
26	103	0.036886227931	0
26	119	0.037198227931	0
26	119	0.037198227931	0
26	143	0.037348937327	0
26	143	0.037348937327	0
26	153	0.037660937327	0
26	153	0.037660937327	0
26	181	0.041134913519	0
26	181	0.041134913519	0
26	191	0.041446913519	0
26	191	0.041446913519	0
26	217	0.047687634164	0
26	217	0.047687634164	0
26	223	0.047999634164	0
26	223	0.047999634164	0
26	257	0.056886227931	0
26	257	0.056886227931	0
26	271	0.057198227931	0
26	271	0.057198227931	0
26	295	0.057588937327	0
26	295	0.057588937327	0
26	305	0.057900937327	0
26	305	0.057900937327	0
26	333	0.061134913519	0
26	333	0.061134913519	0
26	343	0.061446913519	0
26	343	0.061446913519	0
26	368	0.067687634164	0
26	368	0.067687634164	0
26	375	0.067999634164	0
26	375	0.067999634164	0
26	409	0.076886227931	0
26	409	0.076886227931	0
26	423	0.077198227931	0
26	423	0.077198227931	0
26	447	0.077268937327	0
26	447	0.077268937327	0
26	457	0.077580937327	0
26	457	0.077580937327	0
26	485	0.081134913519	0
26	485	0.081134913519	0
26	495	0.081446913519	0
26	495	0.081446913519	0
26	521	0.087687634164	0
26	521	0.087687634164	0
26	527	0.087999634164	0
26	527	0.087999634164	0
26	561	0.096886227931	0
26	561	0.096886227931	0
26	575	0.097198227931	0
26	575	0.097198227931	0
26	599	0.097708937327	0
26	599	0.097708937327	0
26	610	0.098020937327	0
26	610	0.098020937327	0
26	637	0.101134913519	0
26	637	0.101134913519	0
26	647	0.101446913519	0
26	647	0.101446913519	0
26	672	0.107687634164	0
26	672	0.107687634164	0
26	678	0.107999634164	0
26	678	0.107999634164	0
26	713	0.116886227931	0
26	713	0.116886227931	0
26	727	0.117198227931	0
26	727	0.117198227931	0
26	751	0.117248937327	0
26	751	0.117248937327	0
26	761	0.117560937327	0
26	761	0.117560937327	0
26	789	0.121134913519	0
26	789	0.121134913519	0
26	799	0.121446913519	0
26	799	0.121446913519	0
26	825	0.127687634164	0
26	825	0.127687634164	0
26	831	0.127999634164	0
26	831	0.127999634164	0
26	865	0.136886227931	0
26	865	0.136886227931	0
26	879	0.137198227931	0
26	879	0.137198227931	0
26	903	0.137588937327	0
26	903	0.137588937327	0
26	913	0.137900937327	0
26	913	0.137900937327	0
26	941	0.141134913519	0
26	941	0.141134913519	0
26	951	0.141446913519	0
26	951	0.141446913519	0
26	976	0.147687634164	0
26	976	0.147687634164	0
26	983	0.147999634164	0
26	983	0.147999634164	0
26	1017	0.156886227931	0
26	1017	0.156886227931	0
26	1031	0.157198227931	0
26	1031	0.157198227931	0
26	1055	0.157268937327	0
26	1055	0.157268937327	0
26	1065	0.157580937327	0
26	1065	0.157580937327	0
26	1093	0.161134913519	0
26	1093	0.161134913519	0
26	1103	0.161446913519	0
26	1103	0.161446913519	0
27	0	0	0
27	0	0	0
27	21	0.021134259515	0
27	21	0.021134259515	2
27	24	0.021134259515	2
27	24	0.021134259515	0
27	27	0.021134259515	0
27	27	0.021134259515	0
27	33	0.021446259515	0
27	33	0.021446259515	0
27	66	0.027688288168	0
27	66	0.027688288168	0
27	75	0.028000288168	0
27	75	0.028000288168	0
27	105	0.036886751678	0
27	105	0.036886751678	0
27	131	0.037198751678	0
27	131	0.037198751678	0
27	142	0.037348755427	0
27	142	0.037348755427	0
27	147	0.037660755427	0
27	147	0.037660755427	0
27	172	0.041134259515	0
27	172	0.041134259515	2
27	175	0.041134259515	2
27	175	0.041134259515	0
27	178	0.041134259515	0
27	178	0.041134259515	0
27	184	0.041446259515	0
27	184	0.041446259515	0
27	220	0.047688288168	0
27	220	0.047688288168	0
27	230	0.048000288168	0
27	230	0.048000288168	0
27	259	0.056886751678	0
27	259	0.056886751678	0
27	283	0.057198751678	0
27	283	0.057198751678	0
27	294	0.057588755427	0
27	294	0.057588755427	0
27	299	0.057900755427	0
27	299	0.057900755427	0
27	324	0.061134259515	0
27	324	0.061134259515	2
27	327	0.061134259515	2
27	327	0.061134259515	0
27	330	0.061134259515	0
27	330	0.061134259515	0
27	336	0.061446259515	0
27	336	0.061446259515	0
27	371	0.067688288168	0
27	371	0.067688288168	0
27	382	0.068000288168	0
27	382	0.068000288168	0
27	411	0.076886751678	0
27	411	0.076886751678	0
27	435	0.077198751678	0
27	435	0.077198751678	0
27	446	0.077268755427	0
27	446	0.077268755427	0
27	451	0.077580755427	0
27	451	0.077580755427	0
27	476	0.081134259515	0
27	476	0.081134259515	2
27	479	0.081134259515	2
27	479	0.081134259515	0
27	482	0.081134259515	0
27	482	0.081134259515	0
27	488	0.081446259515	0
27	488	0.081446259515	0
27	524	0.087688288168	0
27	524	0.087688288168	0
27	534	0.088000288168	0
27	534	0.088000288168	0
27	563	0.096886751678	0
27	563	0.096886751678	0
27	587	0.097198751678	0
27	587	0.097198751678	0
27	598	0.097708755427	0
27	598	0.097708755427	0
27	604	0.098020755427	0
27	604	0.098020755427	0
27	628	0.101134259515	0
27	628	0.101134259515	2
27	631	0.101134259515	2
27	631	0.101134259515	0
27	634	0.101134259515	0
27	634	0.101134259515	0
27	640	0.101446259515	0
27	640	0.101446259515	0
27	675	0.107688288168	0
27	675	0.107688288168	0
27	685	0.108000288168	0
27	685	0.108000288168	0
27	715	0.116886751678	0
27	715	0.116886751678	0
27	739	0.117198751678	0
27	739	0.117198751678	0
27	750	0.117248755427	0
27	750	0.117248755427	0
27	755	0.117560755427	0
27	755	0.117560755427	0
27	780	0.121134259515	0
27	780	0.121134259515	2
27	783	0.121134259515	2
27	783	0.121134259515	0
27	786	0.121134259515	0
27	786	0.121134259515	0
27	792	0.121446259515	0
27	792	0.121446259515	0
27	828	0.127688288168	0
27	828	0.127688288168	0
27	838	0.128000288168	0
27	838	0.128000288168	0
27	867	0.136886751678	0
27	867	0.136886751678	0
27	891	0.137198751678	0
27	891	0.137198751678	0
27	902	0.137588755427	0
27	902	0.137588755427	0
27	907	0.137900755427	0
27	907	0.137900755427	0
27	932	0.141134259515	0
27	932	0.141134259515	2
27	935	0.141134259515	2
27	935	0.141134259515	0
27	938	0.141134259515	0
27	938	0.141134259515	0
27	944	0.141446259515	0
27	944	0.141446259515	0
27	979	0.147688288168	0
27	979	0.147688288168	0
27	990	0.148000288168	0
27	990	0.148000288168	0
27	1019	0.156886751678	0
27	1019	0.156886751678	0
27	1043	0.157198751678	0
27	1043	0.157198751678	0
27	1054	0.157268755427	0
27	1054	0.157268755427	0
27	1059	0.157580755427	0
27	1059	0.157580755427	0
27	1084	0.161134259515	0
27	1084	0.161134259515	2
27	1087	0.161134259515	2
27	1087	0.161134259515	0
27	1090	0.161134259515	0
27	1090	0.161134259515	0
27	1096	0.161446259515	0
27	1096	0.161446259515	0
28	0	0	0
28	0	0	0
28	27	0.021134259515	0
28	27	0.021134259515	0
28	33	0.021446259515	0
28	33	0.021446259515	0
28	66	0.027688288168	0
28	66	0.027688288168	0
28	75	0.028000288168	0
28	75	0.028000288168	0
28	105	0.036886751678	0
28	105	0.036886751678	0
28	131	0.037198751678	0
28	131	0.037198751678	0
28	142	0.037348755427	0
28	142	0.037348755427	0
28	147	0.037660755427	0
28	147	0.037660755427	0
28	178	0.041134259515	0
28	178	0.041134259515	0
28	184	0.041446259515	0
28	184	0.041446259515	0
28	220	0.047688288168	0
28	220	0.047688288168	0
28	230	0.048000288168	0
28	230	0.048000288168	0
28	259	0.056886751678	0
28	259	0.056886751678	0
28	283	0.057198751678	0
28	283	0.057198751678	0
28	294	0.057588755427	0
28	294	0.057588755427	0
28	299	0.057900755427	0
28	299	0.057900755427	0
28	330	0.061134259515	0
28	330	0.061134259515	0
28	336	0.061446259515	0
28	336	0.061446259515	0
28	371	0.067688288168	0
28	371	0.067688288168	0
28	382	0.068000288168	0
28	382	0.068000288168	0
28	411	0.076886751678	0
28	411	0.076886751678	0
28	435	0.077198751678	0
28	435	0.077198751678	0
28	446	0.077268755427	0
28	446	0.077268755427	0
28	451	0.077580755427	0
28	451	0.077580755427	0
28	482	0.081134259515	0
28	482	0.081134259515	0
28	488	0.081446259515	0
28	488	0.081446259515	0
28	524	0.087688288168	0
28	524	0.087688288168	0
28	534	0.088000288168	0
28	534	0.088000288168	0
28	563	0.096886751678	0
28	563	0.096886751678	0
28	587	0.097198751678	0
28	587	0.097198751678	0
28	598	0.097708755427	0
28	598	0.097708755427	0
28	604	0.098020755427	0
28	604	0.098020755427	0
28	634	0.101134259515	0
28	634	0.101134259515	0
28	640	0.101446259515	0
28	640	0.101446259515	0
28	675	0.107688288168	0
28	675	0.107688288168	0
28	685	0.108000288168	0
28	685	0.108000288168	0
28	715	0.116886751678	0
28	715	0.116886751678	0
28	739	0.117198751678	0
28	739	0.117198751678	0
28	750	0.117248755427	0
28	750	0.117248755427	0
28	755	0.117560755427	0
28	755	0.117560755427	0
28	786	0.121134259515	0
28	786	0.121134259515	0
28	792	0.121446259515	0
28	792	0.121446259515	0
28	828	0.127688288168	0
28	828	0.127688288168	0
28	838	0.128000288168	0
28	838	0.128000288168	0
28	867	0.136886751678	0
28	867	0.136886751678	0
28	891	0.137198751678	0
28	891	0.137198751678	0
28	902	0.137588755427	0
28	902	0.137588755427	0
28	907	0.137900755427	0
28	907	0.137900755427	0
28	938	0.141134259515	0
28	938	0.141134259515	0
28	944	0.141446259515	0
28	944	0.141446259515	0
28	979	0.147688288168	0
28	979	0.147688288168	0
28	990	0.148000288168	0
28	990	0.148000288168	0
28	1019	0.156886751678	0
28	1019	0.156886751678	0
28	1043	0.157198751678	0
28	1043	0.157198751678	0
28	1054	0.157268755427	0
28	1054	0.157268755427	0
28	1059	0.157580755427	0
28	1059	0.157580755427	0
28	1090	0.161134259515	0
28	1090	0.161134259515	0
28	1096	0.161446259515	0
28	1096	0.161446259515	0
29	0	0	0
29	0	0	0
29	27	0.021134259515	0
29	27	0.021134259515	0
29	33	0.021446259515	0
29	33	0.021446259515	0
29	66	0.027688288168	0
29	66	0.027688288168	0
29	75	0.028000288168	0
29	75	0.028000288168	0
29	105	0.036886751678	0
29	105	0.036886751678	0
29	131	0.037198751678	0
29	131	0.037198751678	0
29	142	0.037348755427	0
29	142	0.037348755427	0
29	147	0.037660755427	0
29	147	0.037660755427	0
29	178	0.041134259515	0
29	178	0.041134259515	0
29	184	0.041446259515	0
29	184	0.041446259515	0
29	220	0.047688288168	0
29	220	0.047688288168	0
29	230	0.048000288168	0
29	230	0.048000288168	0
29	259	0.056886751678	0
29	259	0.056886751678	0
29	283	0.057198751678	0
29	283	0.057198751678	0
29	294	0.057588755427	0
29	294	0.057588755427	0
29	299	0.057900755427	0
29	299	0.057900755427	0
29	330	0.061134259515	0
29	330	0.061134259515	0
29	336	0.061446259515	0
29	336	0.061446259515	0
29	371	0.067688288168	0
29	371	0.067688288168	0
29	382	0.068000288168	0
29	382	0.068000288168	0
29	411	0.076886751678	0
29	411	0.076886751678	0
29	435	0.077198751678	0
29	435	0.077198751678	0
29	446	0.077268755427	0
29	446	0.077268755427	0
29	451	0.077580755427	0
29	451	0.077580755427	0
29	482	0.081134259515	0
29	482	0.081134259515	0
29	488	0.081446259515	0
29	488	0.081446259515	0
29	524	0.087688288168	0
29	524	0.087688288168	0
29	534	0.088000288168	0
29	534	0.088000288168	0
29	563	0.096886751678	0
29	563	0.096886751678	0
29	587	0.097198751678	0
29	587	0.097198751678	0
29	598	0.097708755427	0
29	598	0.097708755427	0
29	604	0.098020755427	0
29	604	0.098020755427	0
29	634	0.101134259515	0
29	634	0.101134259515	0
29	640	0.101446259515	0
29	640	0.101446259515	0
29	675	0.107688288168	0
29	675	0.107688288168	0
[...]
46	889	0.137198508925	108
46	949	0.141446506017	108
46	988	0.148000062566	108
46	1027	0.156945034745	108
46	1041	0.157198508925	108
46	1101	0.161446506017	108
47	38	0.021446506017	1
47	74	0.028000062566	2
48	40	0.021446913519	164
48	120	0.037198227931	164
48	154	0.037660937327	164
48	192	0.041446913519	164
48	272	0.057198227931	164
48	306	0.057900937327	164
48	344	0.061446913519	164
48	424	0.077198227931	164
48	458	0.077580937327	164
48	496	0.081446913519	164
48	576	0.097198227931	164
48	611	0.098020937327	164
48	648	0.101446913519	164
48	728	0.117198227931	164
48	762	0.117560937327	164
48	800	0.121446913519	164
48	880	0.137198227931	164
48	914	0.137900937327	164
48	952	0.141446913519	164
48	1032	0.157198227931	164
48	1066	0.157580937327	164
48	1104	0.161446913519	164
49	40	0.021446913519	164
49	120	0.037198227931	164
49	154	0.037660937327	164
49	192	0.041446913519	164
49	272	0.057198227931	164
49	306	0.057900937327	164
49	344	0.061446913519	164
49	424	0.077198227931	164
49	458	0.077580937327	164
49	496	0.081446913519	164
49	576	0.097198227931	164
49	611	0.098020937327	164
49	648	0.101446913519	164
49	728	0.117198227931	164
49	762	0.117560937327	164
49	800	0.121446913519	164
49	880	0.137198227931	164
49	914	0.137900937327	164
49	952	0.141446913519	164
49	1032	0.157198227931	164
49	1066	0.157580937327	164
49	1104	0.161446913519	164
50	43	0.021446913519	108
50	58	0.027687634164	108
50	123	0.037198227931	108
50	157	0.037660937327	108
50	195	0.041446913519	108
50	212	0.047687634164	108
50	275	0.057198227931	108
50	309	0.057900937327	108
50	347	0.061446913519	108
50	363	0.067687634164	108
50	427	0.077198227931	108
50	461	0.077580937327	108
50	499	0.081446913519	108
50	516	0.087687634164	108
50	579	0.097198227931	108
50	614	0.098020937327	108
50	651	0.101446913519	108
50	667	0.107687634164	108
50	731	0.117198227931	108
50	765	0.117560937327	108
50	803	0.121446913519	108
50	820	0.127687634164	108
50	883	0.137198227931	108
50	917	0.137900937327	108
50	955	0.141446913519	108
50	971	0.147687634164	108
50	1035	0.157198227931	108
50	1069	0.157580937327	108
50	1107	0.161446913519	108
51	43	0.021446913519	1
52	45	0.021447696311	164
52	82	0.028000547213	164
52	160	0.037661702968	164
52	198	0.041447696311	164
52	237	0.048000547213	164
52	312	0.057901702968	164
52	350	0.061447696311	164
52	389	0.068000547213	164
52	464	0.077581702968	164
52	502	0.081447696311	164
52	541	0.088000547213	164
52	617	0.098021702968	164
52	654	0.101447696311	164
52	692	0.108000547213	164
52	768	0.117561702968	164
52	806	0.121447696311	164
52	845	0.128000547213	164
52	920	0.137901702968	164
52	958	0.141447696311	164
52	997	0.148000547213	164
52	1072	0.157581702968	164
53	45	0.021447696311	164
53	82	0.028000547213	164
53	160	0.037661702968	164
53	198	0.041447696311	164
53	237	0.048000547213	164
53	312	0.057901702968	164
53	350	0.061447696311	164
53	389	0.068000547213	164
53	464	0.077581702968	164
53	502	0.081447696311	164
53	541	0.088000547213	164
53	617	0.098021702968	164
53	654	0.101447696311	164
53	692	0.108000547213	164
53	768	0.117561702968	164
53	806	0.121447696311	164
53	845	0.128000547213	164
53	920	0.137901702968	164
53	958	0.141447696311	164
53	997	0.148000547213	164
53	1072	0.157581702968	164
54	48	0.021447696311	108
54	85	0.028000547213	108
54	96	0.036885314882	108
54	163	0.037661702968	108
54	201	0.041447696311	108
54	240	0.048000547213	108
54	250	0.056885314882	108
54	315	0.057901702968	108
54	353	0.061447696311	108
54	392	0.068000547213	108
54	402	0.076885314882	108
54	467	0.077581702968	108
54	505	0.081447696311	108
54	544	0.088000547213	108
54	554	0.096885314882	108
54	620	0.098021702968	108
54	657	0.101447696311	108
54	695	0.108000547213	108
54	706	0.116885314882	108
54	771	0.117561702968	108
54	809	0.121447696311	108
54	848	0.128000547213	108
54	858	0.136885314882	108
54	923	0.137901702968	108
54	961	0.141447696311	108
54	1000	0.148000547213	108
54	1010	0.156885314882	108
54	1075	0.157581702968	108
55	48	0.021447696311	1
55	85	0.028000547213	2
56	49	0.027687634164	100
56	205	0.047687634164	100
56	356	0.067687634164	100
56	509	0.087687634164	100
56	660	0.107687634164	100
56	813	0.127687634164	100
56	964	0.147687634164	100
57	52	0.027687634164	108
57	206	0.047687634164	108
57	357	0.067687634164	108
57	510	0.087687634164	108
57	661	0.107687634164	108
57	814	0.127687634164	108
57	965	0.147687634164	108
58	54	0.027687634164	128
58	208	0.047687634164	128
58	359	0.067687634164	128
58	512	0.087687634164	128
58	663	0.107687634164	128
58	816	0.127687634164	128
58	967	0.147687634164	128
59	54	0.027687634164	128
59	208	0.047687634164	128
59	359	0.067687634164	128
59	512	0.087687634164	128
59	663	0.107687634164	128
59	816	0.127687634164	128
59	967	0.147687634164	128
60	57	0.027687634164	164
60	211	0.047687634164	164
60	362	0.067687634164	164
60	515	0.087687634164	164
60	666	0.107687634164	164
60	819	0.127687634164	164
60	970	0.147687634164	164
61	58	0.027687634164	1
61	123	0.037198227931	2
61	157	0.037660937327	3
61	195	0.041446913519	4
61	212	0.047687634164	5
61	275	0.057198227931	6
61	309	0.057900937327	7
61	347	0.061446913519	8
61	363	0.067687634164	9
61	427	0.077198227931	10
61	461	0.077580937327	11
61	499	0.081446913519	12
61	516	0.087687634164	13
61	579	0.097198227931	14
61	614	0.098020937327	15
61	651	0.101446913519	16
61	667	0.107687634164	17
61	731	0.117198227931	18
61	765	0.117560937327	19
61	803	0.121446913519	20
61	820	0.127687634164	21
61	883	0.137198227931	22
61	917	0.137900937327	23
61	955	0.141446913519	24
61	971	0.147687634164	25
61	1035	0.157198227931	26
61	1069	0.157580937327	27
61	1107	0.161446913519	28
62	59	0.027687634164	100
62	124	0.037198227931	100
62	158	0.037660937327	100
62	196	0.041446913519	100
62	213	0.047687634164	100
62	276	0.057198227931	100
62	310	0.057900937327	100
62	348	0.061446913519	100
62	364	0.067687634164	100
62	428	0.077198227931	100
62	462	0.077580937327	100
62	500	0.081446913519	100
62	517	0.087687634164	100
62	580	0.097198227931	100
62	615	0.098020937327	100
62	652	0.101446913519	100
62	668	0.107687634164	100
62	732	0.117198227931	100
62	766	0.117560937327	100
62	804	0.121446913519	100
62	821	0.127687634164	100
62	884	0.137198227931	100
62	918	0.137900937327	100
62	956	0.141446913519	100
62	972	0.147687634164	100
62	1036	0.157198227931	100
62	1070	0.157580937327	100
62	1108	0.161446913519	100
63	59	0.027687634164	0
63	124	0.037198227931	0.000312913049
63	158	0.037660937327	0.000715902582
63	196	0.041446913519	0.000312654004
63	213	0.047687634164	0
63	276	0.057198227931	0.000312913049
63	310	0.057900937327	0.000955902582
63	348	0.061446913519	0.000312654004
63	364	0.067687634164	0
63	428	0.077198227931	0.000312913049
63	462	0.077580937327	0.000635902582
63	500	0.081446913519	0.000312654004
63	517	0.087687634164	0
63	580	0.097198227931	0.000312913049
63	615	0.098020937327	0.001075902582
63	652	0.101446913519	0.000312654004
63	668	0.107687634164	0
63	732	0.117198227931	0.000312913049
63	766	0.117560937327	0.000615902582
63	804	0.121446913519	0.000312654004
63	821	0.127687634164	0
63	884	0.137198227931	0.000312913049
63	918	0.137900937327	0.000955902582
63	956	0.141446913519	0.000312654004
63	972	0.147687634164	0
63	1036	0.157198227931	0.000312913049
63	1070	0.157580937327	0.000635902582
63	1108	0.161446913519	0.000312654004
64	59	0.027687634164	0
64	124	0.037198227931	0
64	158	0.037660937327	0
64	196	0.041446913519	1
64	213	0.047687634164	1
64	276	0.057198227931	1
64	310	0.057900937327	1
64	348	0.061446913519	2
64	364	0.067687634164	2
64	428	0.077198227931	2
64	462	0.077580937327	2
64	500	0.081446913519	3
64	517	0.087687634164	3
64	580	0.097198227931	3
64	615	0.098020937327	3
64	652	0.101446913519	4
64	668	0.107687634164	4
64	732	0.117198227931	4
64	766	0.117560937327	4
64	804	0.121446913519	5
64	821	0.127687634164	5
64	884	0.137198227931	5
64	918	0.137900937327	5
64	956	0.141446913519	6
64	972	0.147687634164	6
64	1036	0.157198227931	6
64	1070	0.157580937327	6
64	1108	0.161446913519	7
65	62	0.027687634164	164
65	216	0.047687634164	164
65	367	0.067687634164	164
65	520	0.087687634164	164
65	671	0.107687634164	164
65	824	0.127687634164	164
65	975	0.147687634164	164
66	63	0.027687634164	1
66	64	0.027687634164	2
66	68	0.027999634164	1
66	69	0.027999634164	0
66	217	0.047687634164	1
66	218	0.047687634164	2
66	222	0.047999634164	1
66	223	0.047999634164	0
66	368	0.067687634164	1
66	369	0.067687634164	2
66	374	0.067999634164	1
66	375	0.067999634164	0
66	521	0.087687634164	1
66	522	0.087687634164	2
66	526	0.087999634164	1
66	527	0.087999634164	0
66	672	0.107687634164	1
66	673	0.107687634164	2
66	677	0.107999634164	1
66	678	0.107999634164	0
66	825	0.127687634164	1
66	826	0.127687634164	2
66	830	0.127999634164	1
66	831	0.127999634164	0
66	976	0.147687634164	1
66	977	0.147687634164	2
66	982	0.147999634164	1
66	983	0.147999634164	0
67	76	0.028000288168	164
67	132	0.037198751678	164
67	148	0.037660755427	164
67	231	0.048000288168	164
67	284	0.057198751678	164
67	300	0.057900755427	164
67	383	0.068000288168	164
67	436	0.077198751678	164
67	452	0.077580755427	164
67	535	0.088000288168	164
67	588	0.097198751678	164
67	605	0.098020755427	164
67	686	0.108000288168	164
67	740	0.117198751678	164
67	756	0.117560755427	164
67	839	0.128000288168	164
67	892	0.137198751678	164
67	908	0.137900755427	164
67	991	0.148000288168	164
67	1044	0.157198751678	164
67	1060	0.157580755427	164
68	76	0.028000288168	164
68	132	0.037198751678	164
68	148	0.037660755427	164
68	231	0.048000288168	164
68	284	0.057198751678	164
68	300	0.057900755427	164
68	383	0.068000288168	164
68	436	0.077198751678	164
68	452	0.077580755427	164
68	535	0.088000288168	164
68	588	0.097198751678	164
68	605	0.098020755427	164
68	686	0.108000288168	164
68	740	0.117198751678	164
68	756	0.117560755427	164
68	839	0.128000288168	164
68	892	0.137198751678	164
68	908	0.137900755427	164
68	991	0.148000288168	164
68	1044	0.157198751678	164
68	1060	0.157580755427	164
69	87	0.036885314882	100
69	243	0.056885314882	100
69	395	0.076885314882	100
69	547	0.096885314882	100
69	699	0.116885314882	100
69	851	0.136885314882	100
69	1003	0.156885314882	100
70	90	0.036885314882	108
70	244	0.056885314882	108
70	396	0.076885314882	108
70	548	0.096885314882	108
70	700	0.116885314882	108
70	852	0.136885314882	108
70	1004	0.156885314882	108
71	92	0.036885314882	128
71	246	0.056885314882	128
71	398	0.076885314882	128
71	550	0.096885314882	128
71	702	0.116885314882	128
71	854	0.136885314882	128
71	1006	0.156885314882	128
72	92	0.036885314882	128
72	246	0.056885314882	128
72	398	0.076885314882	128
72	550	0.096885314882	128
72	702	0.116885314882	128
72	854	0.136885314882	128
72	1006	0.156885314882	128
73	95	0.036885314882	164
73	249	0.056885314882	164
73	401	0.076885314882	164
73	553	0.096885314882	164
73	705	0.116885314882	164
73	857	0.136885314882	164
73	1009	0.156885314882	164
74	96	0.036885314882	1
74	163	0.037661702968	2
74	201	0.041447696311	3
74	240	0.048000547213	4
74	250	0.056885314882	5
74	315	0.057901702968	6
74	353	0.061447696311	7
74	392	0.068000547213	8
74	402	0.076885314882	9
74	467	0.077581702968	10
74	505	0.081447696311	11
74	544	0.088000547213	12
74	554	0.096885314882	13
74	620	0.098021702968	14
74	657	0.101447696311	15
74	695	0.108000547213	16
74	706	0.116885314882	17
74	771	0.117561702968	18
74	809	0.121447696311	19
74	848	0.128000547213	20
74	858	0.136885314882	21
74	923	0.137901702968	22
74	961	0.141447696311	23
74	1000	0.148000547213	24
74	1010	0.156885314882	25
74	1075	0.157581702968	26
75	97	0.036885314882	100
75	164	0.037661702968	100
75	202	0.041447696311	100
75	241	0.048000547213	100
75	251	0.056885314882	100
75	316	0.057901702968	100
75	354	0.061447696311	100
75	393	0.068000547213	100
75	403	0.076885314882	100
75	468	0.077581702968	100
75	506	0.081447696311	100
75	545	0.088000547213	100
75	555	0.096885314882	100
75	621	0.098021702968	100
75	658	0.101447696311	100
75	696	0.108000547213	100
75	707	0.116885314882	100
75	772	0.117561702968	100
75	810	0.121447696311	100
75	849	0.128000547213	100
75	859	0.136885314882	100
75	924	0.137901702968	100
75	962	0.141447696311	100
75	1001	0.148000547213	100
75	1011	0.156885314882	100
75	1076	0.157581702968	100
76	97	0.036885314882	0
76	164	0.037661702968	0.000716668223
76	202	0.041447696311	0.000313436796
76	241	0.048000547213	0.000312913049
76	251	0.056885314882	0
76	316	0.057901702968	0.000956668223
76	354	0.061447696311	0.000313436796
76	393	0.068000547213	0.000312913049
76	403	0.076885314882	0
76	468	0.077581702968	0.000636668223
76	506	0.081447696311	0.000313436796
76	545	0.088000547213	0.000312913049
76	555	0.096885314882	0
76	621	0.098021702968	0.001076668223
76	658	0.101447696311	0.000313436796
76	696	0.108000547213	0.000312913049
76	707	0.116885314882	0
76	772	0.117561702968	0.000616668223
76	810	0.121447696311	0.000313436796
76	849	0.128000547213	0.000312913049
76	859	0.136885314882	0
76	924	0.137901702968	0.000956668223
76	962	0.141447696311	0.000313436796
76	1001	0.148000547213	0.000312913049
76	1011	0.156885314882	0
76	1076	0.157581702968	0.000636668223
77	97	0.036885314882	0
77	164	0.037661702968	0
77	202	0.041447696311	1
77	241	0.048000547213	1
77	251	0.056885314882	1
77	316	0.057901702968	1
77	354	0.061447696311	2
77	393	0.068000547213	2
77	403	0.076885314882	2
77	468	0.077581702968	2
77	506	0.081447696311	3
77	545	0.088000547213	3
77	555	0.096885314882	3
77	621	0.098021702968	3
77	658	0.101447696311	4
77	696	0.108000547213	4
77	707	0.116885314882	4
77	772	0.117561702968	4
77	810	0.121447696311	5
77	849	0.128000547213	5
77	859	0.136885314882	5
77	924	0.137901702968	5
77	962	0.141447696311	6
77	1001	0.148000547213	6
77	1011	0.156885314882	6
77	1076	0.157581702968	6
78	100	0.036885314882	164
78	254	0.056885314882	164
78	406	0.076885314882	164
78	558	0.096885314882	164
78	710	0.116885314882	164
78	862	0.136885314882	164
78	1014	0.156885314882	164
79	101	0.036885314882	1
79	102	0.036885314882	2
79	117	0.037197314882	1
79	118	0.037197314882	0
79	255	0.056885314882	1
79	256	0.056885314882	2
79	269	0.057197314882	1
79	270	0.057197314882	0
79	407	0.076885314882	1
79	408	0.076885314882	2
79	421	0.077197314882	1
79	422	0.077197314882	0
79	559	0.096885314882	1
79	560	0.096885314882	2
79	573	0.097197314882	1
79	574	0.097197314882	0
79	711	0.116885314882	1
79	712	0.116885314882	2
79	725	0.117197314882	1
79	726	0.117197314882	0
79	863	0.136885314882	1
79	864	0.136885314882	2
79	877	0.137197314882	1
79	878	0.137197314882	0
79	1015	0.156885314882	1
79	1016	0.156885314882	2
79	1029	0.157197314882	1
79	1030	0.157197314882	0
80	106	0.036945034745	100
80	260	0.056945034745	100
80	412	0.076945034745	100
80	564	0.096945034745	100
80	716	0.116945034745	100
80	868	0.136945034745	100
80	1020	0.156945034745	100
81	109	0.036945034745	108
81	261	0.056945034745	108
81	413	0.076945034745	108
81	565	0.096945034745	108
81	717	0.116945034745	108
81	869	0.136945034745	108
81	1021	0.156945034745	108
82	111	0.036945034745	128
82	263	0.056945034745	128
82	415	0.076945034745	128
82	567	0.096945034745	128
82	719	0.116945034745	128
82	871	0.136945034745	128
82	1023	0.156945034745	128
83	111	0.036945034745	128
83	263	0.056945034745	128
83	415	0.076945034745	128
83	567	0.096945034745	128
83	719	0.116945034745	128
83	871	0.136945034745	128
83	1023	0.156945034745	128
84	114	0.036945034745	164
84	266	0.056945034745	164
84	418	0.076945034745	164
84	570	0.096945034745	164
84	722	0.116945034745	164
84	874	0.136945034745	164
84	1026	0.156945034745	164
85	115	0.036945034745	1
85	129	0.037198508925	2
85	189	0.041446506017	3
85	228	0.048000062566	4
85	267	0.056945034745	5
85	281	0.057198508925	6
85	341	0.061446506017	7
85	380	0.068000062566	8
85	419	0.076945034745	9
85	433	0.077198508925	10
85	493	0.081446506017	11
85	532	0.088000062566	12
85	571	0.096945034745	13
85	585	0.097198508925	14
85	645	0.101446506017	15
85	683	0.108000062566	16
85	723	0.116945034745	17
85	737	0.117198508925	18
85	797	0.121446506017	19
85	836	0.128000062566	20
85	875	0.136945034745	21
85	889	0.137198508925	22
85	949	0.141446506017	23
85	988	0.148000062566	24
85	1027	0.156945034745	25
85	1041	0.157198508925	26
85	1101	0.161446506017	27
86	116	0.036945034745	100
86	130	0.037198508925	100
86	190	0.041446506017	100
86	229	0.048000062566	100
86	268	0.056945034745	100
86	282	0.057198508925	100
86	342	0.061446506017	100
86	381	0.068000062566	100
86	420	0.076945034745	100
86	434	0.077198508925	100
86	494	0.081446506017	100
86	533	0.088000062566	100
86	572	0.096945034745	100
86	586	0.097198508925	100
86	646	0.101446506017	100
86	684	0.108000062566	100
86	724	0.116945034745	100
86	738	0.117198508925	100
86	798	0.121446506017	100
86	837	0.128000062566	100
86	876	0.136945034745	100
86	890	0.137198508925	100
86	950	0.141446506017	100
86	989	0.148000062566	100
86	1028	0.156945034745	100
86	1042	0.157198508925	100
86	1102	0.161446506017	100
87	116	0.036945034745	0
87	130	0.037198508925	0.000313194043
87	190	0.041446506017	0.000312246502
87	229	0.048000062566	0.000312428402
87	268	0.056945034745	0
87	282	0.057198508925	0.000313194043
87	342	0.061446506017	0.000312246502
87	381	0.068000062566	0.000312428402
87	420	0.076945034745	0
87	434	0.077198508925	0.000313194043
87	494	0.081446506017	0.000312246502
87	533	0.088000062566	0.000312428402
87	572	0.096945034745	0
87	586	0.097198508925	0.000313194043
87	646	0.101446506017	0.000312246502
87	684	0.108000062566	0.000312428402
87	724	0.116945034745	0
87	738	0.117198508925	0.000313194043
87	798	0.121446506017	0.000312246502
87	837	0.128000062566	0.000312428402
87	876	0.136945034745	0
87	890	0.137198508925	0.000313194043
87	950	0.141446506017	0.000312246502
87	989	0.148000062566	0.000312428402
87	1028	0.156945034745	0
87	1042	0.157198508925	0.000313194043
87	1102	0.161446506017	0.000312246502
88	116	0.036945034745	0
88	130	0.037198508925	0
88	190	0.041446506017	1
88	229	0.048000062566	1
88	268	0.056945034745	1
88	282	0.057198508925	1
88	342	0.061446506017	2
88	381	0.068000062566	2
88	420	0.076945034745	2
88	434	0.077198508925	2
88	494	0.081446506017	3
88	533	0.088000062566	3
88	572	0.096945034745	3
88	586	0.097198508925	3
88	646	0.101446506017	4
88	684	0.108000062566	4
88	724	0.116945034745	4
88	738	0.117198508925	4
88	798	0.121446506017	5
88	837	0.128000062566	5
88	876	0.136945034745	5
88	890	0.137198508925	5
88	950	0.141446506017	6
88	989	0.148000062566	6
88	1028	0.156945034745	6
88	1042	0.157198508925	6
88	1102	0.161446506017	7
89	139	0.037348508925	164
89	291	0.057588508925	164
89	443	0.077268508925	164
89	595	0.097708508925	164
89	747	0.117248508925	164
89	899	0.137588508925	164
89	1051	0.157268508925	164
90	140	0.037348508925	1
90	141	0.037348508925	2
90	145	0.037660508925	1
90	146	0.037660508925	0
90	292	0.057588508925	1
90	293	0.057588508925	2
90	297	0.057900508925	1
90	298	0.057900508925	0
90	444	0.077268508925	1
90	445	0.077268508925	2
90	449	0.077580508925	1
90	450	0.077580508925	0
90	596	0.097708508925	1
90	597	0.097708508925	2
90	602	0.098020508925	1
90	603	0.098020508925	0
90	748	0.117248508925	1
90	749	0.117248508925	2
90	753	0.117560508925	1
90	754	0.117560508925	0
90	900	0.137588508925	1
90	901	0.137588508925	2
90	905	0.137900508925	1
90	906	0.137900508925	0
90	1052	0.157268508925	1
90	1053	0.157268508925	2
90	1057	0.157580508925	1
90	1058	0.157580508925	0
91	630	0.1	128000
92	646	0.1	112000
93	652	0.1	120000
94	658	0.1	112000

